
This full-field turbulence file was generated by TurbSim (v1.06.00, 21-Sep-2012) on 11-Apr-2017 at 15:47:14.

 | w-comp |  Y  x  Z  | Grid Resolution (Y x Z) | Time-step | Hub Elev | Mean U |
            13    13     14.600     14.600          0.050      87.70      8.57

 Z Coordinates (m):
  -87.600 -73.000 -58.400 -43.800 -29.200 -14.600   0.000  14.600  29.200  43.800  58.400  73.000  87.600

 Y Coordinates (m):
  -87.600 -73.000 -58.400 -43.800 -29.200 -14.600   0.000  14.600  29.200  43.800  58.400  73.000  87.600

    0.000  -0.397
    0.375   0.271   0.582  -0.459  -0.376   0.097  -0.438   0.125  -0.401  -0.087   0.117   0.160  -0.584
   -0.007   0.057  -0.089   0.361  -0.242   0.114  -0.205  -0.057  -0.533   0.331   0.212  -0.428  -0.493
   -0.174   0.356  -0.014   0.403   0.256   0.161   0.634   0.371  -0.082   0.189   0.673   0.318  -0.461
    0.549   0.317  -0.311   0.183  -0.120  -0.232  -0.708  -0.673  -0.119  -0.441  -0.007   0.122   0.251
   -0.126  -0.325  -0.254   0.376  -0.290  -0.130  -0.180   0.382   0.475  -0.170  -0.089  -0.065   0.273
   -0.358   0.312  -0.202   0.153  -0.579  -0.607  -0.451  -0.271  -0.208  -0.340  -0.397  -0.069  -0.139
   -0.210  -0.351  -0.043   0.548   0.446   0.030  -0.397   0.096   0.342   0.374  -0.773   0.169  -0.194
    0.020  -0.079   0.401   0.211   0.469  -0.558   0.433  -0.110   0.216  -0.055   0.491   0.169   0.075
    0.370  -0.433   0.155  -0.379   0.089   0.157   0.264  -0.185  -0.263  -0.396   0.055   0.548  -0.343
    0.445   0.487   0.035   0.242   0.126   0.021  -0.140  -0.075   0.179  -0.007  -0.374  -0.535   0.080
   -0.297  -0.454  -0.180   0.695   0.011  -0.094  -0.159  -0.428   0.104  -0.111   0.266   0.396  -0.098
    0.477   0.305  -0.155  -0.261   0.268  -0.192  -0.130   0.612   0.059  -0.105  -0.030   0.334  -0.076
    0.281  -0.477  -0.859   0.179   0.021  -0.415  -0.113  -0.171   0.063  -0.250  -0.181  -0.174  -0.476

    0.050  -0.428
    0.478   0.452   0.700  -0.378  -0.531  -0.017  -0.680   0.237  -0.295  -0.079   0.065   0.096  -0.467
    0.035   0.150  -0.248   0.121  -0.198   0.021  -0.260  -0.061  -0.507   0.150   0.136  -0.316  -0.436
   -0.059   0.531   0.032   0.412   0.330  -0.038   0.600   0.240  -0.070   0.262   0.633   0.279  -0.453
    0.636   0.356  -0.170   0.269  -0.200  -0.251  -0.612  -0.535  -0.321  -0.408  -0.179   0.099   0.312
   -0.012  -0.458  -0.256   0.409  -0.514  -0.235  -0.350   0.315   0.449  -0.067  -0.359  -0.092   0.197
   -0.211   0.162  -0.303   0.275  -0.624  -0.403  -0.279  -0.213  -0.194  -0.452  -0.123  -0.222   0.072
   -0.337  -0.486  -0.074   0.557   0.494   0.086  -0.428   0.183   0.249   0.450  -0.715   0.187  -0.093
    0.121  -0.125   0.280   0.398   0.478  -0.667   0.466  -0.371   0.019   0.057   0.636   0.306   0.120
    0.319  -0.436   0.102  -0.406   0.215   0.249   0.274  -0.163  -0.368  -0.360   0.099   0.543  -0.532
    0.381   0.568  -0.075   0.302  -0.066   0.034  -0.219   0.026   0.094  -0.060  -0.562  -0.836   0.007
   -0.257  -0.367  -0.328   0.701   0.020  -0.173  -0.367  -0.324   0.083  -0.181   0.231   0.369  -0.086
    0.552   0.249  -0.165  -0.235   0.296  -0.100  -0.026   0.557   0.062   0.025  -0.036   0.431  -0.189
    0.265  -0.368  -0.832   0.101   0.016  -0.369  -0.237  -0.270   0.027  -0.287  -0.158  -0.246  -0.453

    0.100  -0.592
    0.388   0.419   0.539  -0.285  -0.555   0.039  -0.695   0.235  -0.200  -0.035  -0.067   0.094  -0.478
   -0.110   0.040  -0.303   0.203  -0.125   0.180  -0.229  -0.212  -0.333   0.109   0.106   0.046  -0.552
   -0.095   0.594   0.145   0.136   0.360   0.070   0.344   0.175   0.091   0.195   0.500   0.423  -0.229
    0.683   0.308  -0.202   0.320  -0.319  -0.095  -0.436  -0.639  -0.392  -0.462  -0.282   0.177   0.277
    0.053  -0.461  -0.102   0.339  -0.531  -0.193  -0.449   0.370   0.620   0.002  -0.287  -0.159   0.312
   -0.295   0.167  -0.332   0.345  -0.639  -0.353  -0.194  -0.188  -0.351  -0.509  -0.014  -0.353   0.166
   -0.372  -0.370   0.018   0.445   0.525   0.012  -0.592   0.016   0.493   0.342  -0.600   0.244  -0.033
   -0.030  -0.013   0.164   0.350   0.338  -0.644   0.676  -0.425   0.138  -0.007   0.800   0.324   0.027
    0.421  -0.373   0.223  -0.046   0.211   0.221   0.405   0.037  -0.505  -0.285   0.155   0.485  -0.569
    0.460   0.565  -0.044   0.283  -0.189   0.055  -0.332   0.010   0.019  -0.175  -0.538  -0.764  -0.178
   -0.318  -0.393  -0.227   0.779  -0.160  -0.301  -0.468  -0.419  -0.026  -0.151   0.267   0.312  -0.163
    0.623   0.361  -0.063  -0.051   0.082  -0.229   0.093   0.559   0.012   0.037  -0.014   0.336  -0.129
    0.599  -0.412  -0.764   0.138  -0.012  -0.250  -0.091  -0.128   0.061  -0.230  -0.138  -0.409  -0.275

    0.150  -0.616
    0.374   0.598   0.531  -0.222  -0.523   0.060  -0.665   0.310  -0.257  -0.147  -0.241   0.001  -0.427
    0.075  -0.039  -0.250   0.492  -0.179   0.164  -0.064  -0.353  -0.395   0.160   0.022  -0.255  -0.451
   -0.076   0.367   0.151  -0.013   0.293   0.127   0.365   0.438   0.122   0.221   0.275   0.306  -0.216
    0.568   0.360  -0.093   0.138  -0.257  -0.200  -0.478  -0.662  -0.383  -0.478  -0.365   0.190   0.248
    0.029  -0.332   0.020   0.332  -0.452  -0.123  -0.512   0.541   0.599   0.049  -0.359  -0.280   0.293
   -0.229   0.153  -0.281   0.249  -0.651  -0.566  -0.117  -0.144  -0.411  -0.539   0.024  -0.121   0.061
   -0.245  -0.271  -0.117   0.338   0.533   0.252  -0.616   0.078   0.493   0.276  -0.806   0.153  -0.168
    0.174  -0.111  -0.000   0.214   0.678  -0.656   0.633  -0.292   0.181  -0.217   0.878   0.293   0.158
    0.471  -0.354   0.092  -0.145   0.079   0.178   0.488   0.206  -0.453  -0.337   0.235   0.535  -0.670
    0.521   0.515   0.019   0.114  -0.403  -0.053  -0.422  -0.077   0.102  -0.176  -0.519  -0.650  -0.121
   -0.115  -0.235  -0.182   0.522  -0.220  -0.165  -0.590  -0.442  -0.065  -0.188   0.267   0.299  -0.396
    0.620   0.227  -0.116  -0.145  -0.055  -0.276   0.039   0.581   0.028  -0.064   0.055   0.274   0.060
    0.450  -0.344  -0.750   0.089  -0.078  -0.218  -0.166  -0.309   0.125   0.001  -0.157  -0.537  -0.148

    0.200  -0.593
    0.244   0.419   0.540  -0.108  -0.690   0.002  -0.513   0.275  -0.349  -0.030  -0.170   0.053  -0.415
    0.183  -0.067  -0.135   0.321  -0.167   0.104  -0.107  -0.275  -0.426   0.170   0.033  -0.319  -0.528
   -0.001   0.304   0.110  -0.007   0.451   0.169   0.257   0.406   0.094   0.276   0.399   0.263  -0.420
    0.645   0.498  -0.145   0.128  -0.307  -0.276  -0.385  -0.696  -0.348  -0.528  -0.351   0.246   0.114
   -0.092  -0.189  -0.082   0.356  -0.326  -0.398  -0.369   0.485   0.379   0.061  -0.446  -0.501   0.280
   -0.311   0.079  -0.286   0.281  -0.505  -0.411  -0.233   0.027  -0.351  -0.399   0.010  -0.104   0.038
   -0.087  -0.296  -0.005   0.387   0.494   0.362  -0.593   0.016   0.410   0.267  -0.676   0.122  -0.110
    0.168  -0.020  -0.029   0.019   0.730  -0.530   0.782  -0.311   0.192  -0.267   0.833   0.191   0.102
    0.503  -0.308   0.090  -0.194  -0.032   0.101   0.333   0.319  -0.262  -0.390   0.428   0.276  -0.642
    0.491   0.512  -0.188   0.033  -0.344   0.146  -0.504   0.029   0.136  -0.277  -0.500  -0.549   0.007
   -0.280  -0.043  -0.127   0.641  -0.221  -0.097  -0.595  -0.113  -0.161  -0.186   0.215   0.353  -0.345
    0.489   0.308  -0.209  -0.161  -0.062  -0.325  -0.163   0.568   0.014   0.060   0.076   0.344   0.019
    0.375  -0.452  -0.679   0.071  -0.183  -0.232  -0.154  -0.358  -0.089   0.017  -0.311  -0.601  -0.148

    0.250  -0.475
    0.411   0.374   0.678  -0.253  -0.521  -0.068  -0.597   0.140  -0.455   0.099  -0.032   0.180  -0.423
    0.265  -0.139  -0.039   0.227  -0.288  -0.033  -0.322  -0.289  -0.591   0.143   0.006  -0.335  -0.564
    0.158   0.361  -0.018   0.089   0.432   0.188   0.157   0.339   0.032   0.182   0.286   0.124  -0.368
    0.578   0.450  -0.090   0.133  -0.080  -0.199  -0.313  -0.667  -0.268  -0.429  -0.387   0.297   0.253
   -0.053  -0.140  -0.115   0.309  -0.281  -0.454  -0.469   0.356   0.512  -0.126  -0.354  -0.538   0.301
   -0.513   0.167  -0.256   0.341  -0.272  -0.437  -0.302  -0.088  -0.314  -0.158   0.078   0.163   0.100
   -0.044  -0.360  -0.140   0.294   0.594   0.437  -0.475   0.083   0.567   0.137  -0.653   0.293  -0.174
    0.116  -0.111  -0.103   0.022   0.864  -0.427   0.982  -0.498   0.287  -0.209   0.779   0.057   0.148
    0.607  -0.320   0.038  -0.226  -0.163   0.078   0.317   0.262  -0.104  -0.561   0.423   0.304  -0.587
    0.417   0.591  -0.245  -0.029  -0.147   0.211  -0.705   0.084   0.164  -0.403  -0.534  -0.529   0.031
   -0.433  -0.043  -0.208   0.792  -0.227  -0.050  -0.432  -0.283  -0.179  -0.215   0.189   0.632  -0.335
    0.447   0.170  -0.244  -0.151  -0.039  -0.262  -0.142   0.463   0.078  -0.032   0.044   0.261  -0.297
    0.437  -0.467  -0.599   0.109  -0.175  -0.198  -0.119  -0.398  -0.315  -0.071  -0.532  -0.463  -0.134

    0.300  -0.449
    0.414   0.480   0.544  -0.127  -0.298  -0.222  -0.459   0.097  -0.150   0.097  -0.076   0.196  -0.353
    0.325  -0.032   0.010   0.336  -0.322  -0.138  -0.401  -0.204  -0.474   0.183  -0.071  -0.309  -0.559
    0.048   0.180   0.060   0.174   0.358   0.282   0.259   0.339   0.077   0.102   0.419   0.386  -0.282
    0.596   0.311  -0.117  -0.080  -0.155  -0.282  -0.266  -0.547  -0.287  -0.355  -0.221   0.221   0.185
   -0.035  -0.154  -0.274   0.375  -0.242  -0.480  -0.652   0.357   0.579  -0.040  -0.250  -0.600   0.222
   -0.451   0.109  -0.155   0.466  -0.188  -0.637  -0.200  -0.241  -0.276  -0.269   0.036   0.037   0.271
   -0.158  -0.325  -0.031   0.359   0.343   0.308  -0.449   0.047   0.505   0.163  -0.701   0.250  -0.240
    0.095  -0.171  -0.034   0.102   0.819  -0.376   0.790  -0.384   0.241  -0.188   0.709  -0.133   0.065
    0.777  -0.353  -0.075  -0.153  -0.062  -0.062  -0.014   0.117  -0.192  -0.536   0.374   0.316  -0.606
    0.574   0.508  -0.306  -0.127  -0.060   0.315  -0.838   0.070   0.247  -0.397  -0.573  -0.517  -0.096
   -0.451  -0.072  -0.160   0.685  -0.036  -0.157  -0.493  -0.243  -0.023  -0.172   0.360   0.602  -0.196
    0.345   0.242  -0.359  -0.158   0.168  -0.391  -0.028   0.548   0.131  -0.270  -0.017   0.265  -0.122
    0.471  -0.237  -0.798   0.094  -0.056   0.049  -0.193  -0.289  -0.287  -0.139  -0.445  -0.388  -0.043

    0.350  -0.643
    0.338   0.436   0.326  -0.287  -0.513  -0.243  -0.360   0.096  -0.131  -0.030   0.029   0.232  -0.303
    0.203   0.037   0.007   0.256  -0.149  -0.185  -0.332  -0.321  -0.556   0.110   0.001  -0.450  -0.735
   -0.195  -0.078   0.064   0.255   0.325   0.080   0.359   0.422  -0.007   0.238   0.671   0.204  -0.388
    0.717   0.329  -0.160  -0.031  -0.099  -0.267  -0.406  -0.473  -0.121  -0.385  -0.404   0.231   0.367
   -0.103  -0.111  -0.227   0.340  -0.259  -0.389  -0.681   0.596   0.564  -0.111  -0.127  -0.645   0.082
   -0.334  -0.049  -0.019   0.450  -0.111  -0.372  -0.099  -0.237  -0.054  -0.056  -0.035  -0.099   0.367
   -0.090  -0.554   0.036   0.306   0.372   0.134  -0.643   0.035   0.377   0.167  -0.745   0.139  -0.282
    0.055  -0.036  -0.104   0.272   0.769  -0.423   0.820  -0.402   0.224  -0.275   0.729  -0.137   0.065
    0.831  -0.280  -0.111  -0.205  -0.280   0.024  -0.031   0.175  -0.262  -0.484   0.360   0.350  -0.696
    0.667   0.458  -0.408  -0.239  -0.103   0.130  -0.591   0.120   0.316  -0.350  -0.673  -0.441   0.099
   -0.431   0.084  -0.261   0.584   0.028  -0.121  -0.488  -0.291  -0.165  -0.187   0.447   0.484  -0.420
    0.302   0.105  -0.329  -0.238   0.244  -0.323   0.094   0.537   0.193  -0.252  -0.124   0.266   0.043
    0.471  -0.180  -0.836   0.140  -0.076  -0.218  -0.470  -0.085  -0.459  -0.065  -0.308  -0.423  -0.126

    0.400  -0.631
    0.355   0.507   0.465  -0.258  -0.555  -0.322  -0.442   0.138  -0.296  -0.045  -0.088   0.186  -0.231
    0.285   0.064  -0.073   0.106  -0.124  -0.131  -0.361  -0.568  -0.502   0.062   0.168  -0.214  -0.650
   -0.001  -0.162  -0.060   0.197   0.287   0.089   0.325   0.558   0.132   0.276   0.694  -0.038  -0.371
    0.794   0.375   0.040   0.192  -0.077  -0.283  -0.509  -0.360   0.117  -0.311  -0.221  -0.021   0.526
   -0.293  -0.061  -0.043   0.495  -0.286  -0.455  -0.671   0.622   0.542  -0.162  -0.057  -0.410   0.107
   -0.369  -0.164   0.006   0.421  -0.215  -0.334  -0.259  -0.280  -0.158  -0.035  -0.083  -0.028   0.269
   -0.116  -0.643   0.014   0.244   0.178   0.129  -0.631   0.023   0.496   0.160  -0.858   0.191  -0.411
   -0.016   0.373   0.007   0.115   0.670  -0.350   0.752  -0.264   0.260  -0.264   0.776  -0.037   0.096
    0.645  -0.143  -0.034  -0.267  -0.315  -0.075  -0.036   0.190  -0.139  -0.485   0.220   0.338  -0.699
    0.574   0.363  -0.367  -0.292  -0.264   0.014  -0.552   0.107   0.128  -0.280  -0.767  -0.412   0.018
   -0.208   0.062  -0.392   0.512   0.141   0.114  -0.538  -0.459   0.055   0.054   0.381   0.384  -0.382
    0.266  -0.006  -0.341  -0.247   0.212  -0.373   0.149   0.478   0.450  -0.319   0.042   0.242  -0.043
    0.358   0.076  -0.854  -0.029  -0.005  -0.233  -0.643  -0.033  -0.282  -0.177  -0.308  -0.301  -0.255

    0.450  -0.594
    0.267   0.535   0.508  -0.439  -0.532  -0.366  -0.519   0.301  -0.132   0.036  -0.212   0.164  -0.153
    0.282  -0.063  -0.085  -0.019  -0.070  -0.022  -0.317  -0.511  -0.236   0.136   0.001  -0.097  -0.482
    0.094  -0.169   0.072   0.027   0.156   0.293   0.215   0.697   0.094   0.166   0.468   0.163  -0.235
    0.681   0.360  -0.007   0.172  -0.015  -0.300  -0.474  -0.385   0.094  -0.340  -0.236  -0.172   0.400
   -0.264  -0.010   0.086   0.470  -0.270  -0.484  -0.569   0.299   0.476  -0.050  -0.088  -0.284  -0.025
   -0.254  -0.094  -0.092   0.449  -0.282  -0.115  -0.272  -0.188  -0.393   0.014   0.018   0.043   0.420
    0.045  -0.555   0.007  -0.073   0.240   0.282  -0.594   0.070   0.651   0.118  -0.915   0.286  -0.390
   -0.027   0.283   0.115   0.300   0.617  -0.420   0.714  -0.357   0.254  -0.244   0.797  -0.026   0.130
    0.567  -0.145  -0.187  -0.229  -0.294  -0.087   0.183   0.210  -0.230  -0.645   0.236   0.582  -0.632
    0.419   0.349  -0.370  -0.267  -0.224  -0.083  -0.519   0.059   0.074  -0.330  -0.700  -0.446  -0.065
   -0.095   0.084  -0.444   0.472   0.119  -0.121  -0.487  -0.338   0.206   0.084   0.550   0.401  -0.412
    0.122   0.040  -0.339  -0.246   0.198  -0.250   0.227   0.576   0.267  -0.334   0.059   0.139  -0.100
    0.214   0.117  -0.699  -0.022   0.012  -0.306  -0.607  -0.137  -0.221  -0.266  -0.434  -0.201  -0.273

    0.500  -0.589
    0.292   0.626   0.410  -0.486  -0.720  -0.278  -0.522   0.267  -0.140   0.059  -0.013   0.403  -0.169
    0.236   0.047  -0.257  -0.047   0.004   0.073  -0.218  -0.451  -0.409   0.346   0.014  -0.190  -0.511
    0.109  -0.178  -0.107   0.050   0.280   0.104   0.096   0.749   0.161   0.112   0.549   0.196  -0.117
    0.572   0.347  -0.157   0.331   0.080  -0.264  -0.358  -0.219  -0.077  -0.407  -0.346  -0.086   0.358
   -0.170  -0.074  -0.082   0.523  -0.229  -0.264  -0.668   0.310   0.509  -0.102  -0.173  -0.278   0.013
   -0.139  -0.160  -0.183   0.498  -0.218  -0.060  -0.264  -0.082  -0.338  -0.010   0.089   0.056   0.359
   -0.117  -0.557   0.067  -0.131   0.263   0.278  -0.589   0.004   0.636   0.033  -0.958   0.311  -0.422
    0.068   0.208  -0.084   0.296   0.781  -0.497   0.798  -0.213   0.154  -0.203   0.901   0.067   0.137
    0.511  -0.139  -0.294  -0.252  -0.395  -0.138   0.363   0.162  -0.471  -0.560   0.328   0.679  -0.464
    0.395   0.327  -0.297  -0.184  -0.120  -0.002  -0.627  -0.005   0.183  -0.393  -0.819  -0.407   0.017
    0.069  -0.011  -0.368   0.264  -0.111  -0.263  -0.525  -0.382   0.198   0.072   0.603   0.375  -0.523
    0.007   0.175  -0.205  -0.178   0.199  -0.304   0.194   0.594   0.167  -0.176   0.135   0.269  -0.179
    0.179   0.088  -0.522  -0.088  -0.061  -0.300  -0.546  -0.310  -0.202  -0.215  -0.501  -0.252  -0.301

    0.550  -0.578
    0.278   0.619   0.544  -0.635  -0.659  -0.296  -0.595   0.183  -0.146   0.026   0.070   0.471  -0.262
   -0.052   0.109  -0.401  -0.164  -0.076   0.264  -0.081  -0.317  -0.495   0.362   0.056  -0.208  -0.491
    0.056   0.017  -0.098   0.045   0.150   0.181  -0.007   0.695   0.057   0.164   0.533  -0.028  -0.159
    0.349   0.252  -0.210   0.319   0.236  -0.176  -0.347  -0.008  -0.046  -0.459  -0.369  -0.208   0.357
   -0.168  -0.104  -0.228   0.522  -0.245  -0.377  -0.536   0.497   0.279  -0.107  -0.099  -0.243  -0.032
   -0.396  -0.044  -0.264   0.531  -0.341  -0.038  -0.418  -0.165  -0.256  -0.119  -0.066   0.204   0.296
   -0.323  -0.523  -0.050  -0.036   0.346   0.390  -0.578   0.155   0.453   0.081  -0.802   0.388  -0.353
   -0.034   0.121  -0.045   0.259   0.702  -0.596   0.836  -0.305   0.051  -0.293   0.915   0.089   0.141
    0.506  -0.299  -0.181  -0.315  -0.196   0.003   0.320   0.137  -0.399  -0.610   0.326   0.596  -0.363
    0.243   0.348  -0.236  -0.137  -0.242   0.043  -0.628  -0.001   0.097  -0.456  -0.818  -0.204  -0.134
    0.191  -0.045  -0.292   0.409  -0.006  -0.302  -0.508  -0.246   0.207   0.023   0.650   0.386  -0.454
    0.079   0.190  -0.143  -0.038   0.220  -0.201   0.184   0.594   0.111  -0.060   0.139   0.188   0.040
    0.260  -0.171  -0.387  -0.285   0.045  -0.317  -0.254  -0.326  -0.226  -0.048  -0.417  -0.079  -0.209

    0.600  -0.624
    0.315   0.586   0.626  -0.614  -0.560  -0.110  -0.671   0.227  -0.153   0.025   0.252   0.484  -0.198
   -0.039   0.233  -0.364  -0.219  -0.141   0.385  -0.088  -0.532  -0.464   0.340   0.165  -0.102  -0.420
    0.168  -0.084   0.079  -0.013   0.109   0.228   0.086   0.654   0.202   0.097   0.505   0.036  -0.273
    0.456   0.160  -0.129   0.084   0.433  -0.229  -0.309  -0.152  -0.074  -0.506  -0.354  -0.103   0.311
   -0.199  -0.225  -0.246   0.460  -0.123  -0.429  -0.405   0.560   0.312  -0.039  -0.038  -0.233  -0.197
   -0.593  -0.097  -0.169   0.600  -0.396   0.115  -0.359  -0.125  -0.242  -0.107   0.015   0.189   0.184
   -0.215  -0.602  -0.044  -0.094   0.422   0.363  -0.624   0.082   0.450  -0.092  -0.804   0.313  -0.298
   -0.025   0.119   0.046   0.185   0.708  -0.501   0.868  -0.285   0.009  -0.224   0.699   0.108   0.153
    0.420  -0.446  -0.077  -0.413  -0.251   0.023   0.279   0.192  -0.262  -0.735   0.200   0.533  -0.152
    0.207   0.455  -0.191  -0.097  -0.250   0.069  -0.584   0.051  -0.022  -0.489  -0.688  -0.219  -0.081
    0.140   0.043  -0.135   0.505   0.116  -0.301  -0.358  -0.372   0.250   0.243   0.537   0.551  -0.450
    0.101   0.031  -0.031  -0.197   0.142  -0.128   0.203   0.416  -0.119  -0.098   0.021   0.218  -0.016
    0.164  -0.277  -0.320  -0.244  -0.028  -0.309  -0.383  -0.288  -0.152  -0.062  -0.282  -0.047  -0.242

    0.650  -0.670
    0.244   0.453   0.406  -0.635  -0.493   0.043  -0.409   0.272  -0.196  -0.113   0.199   0.580  -0.331
    0.221   0.050  -0.277  -0.048  -0.043   0.424  -0.195  -0.476  -0.606   0.351   0.129  -0.144  -0.620
    0.089  -0.149   0.203   0.159   0.242   0.307   0.152   0.661   0.206   0.261   0.383  -0.124  -0.337
    0.426   0.183  -0.046   0.047   0.238  -0.274  -0.328  -0.202  -0.289  -0.399  -0.339  -0.022   0.291
   -0.174  -0.232  -0.154   0.572  -0.018  -0.374  -0.386   0.623   0.358  -0.086   0.218  -0.389  -0.146
   -0.560  -0.168  -0.207   0.665  -0.374   0.193  -0.491  -0.238  -0.096  -0.302   0.012   0.268   0.163
   -0.320  -0.673  -0.210   0.007   0.494   0.310  -0.670   0.042   0.305  -0.082  -0.735   0.288  -0.162
   -0.016   0.118   0.055   0.258   0.758  -0.448   0.834  -0.289  -0.069  -0.138   0.555  -0.038   0.025
    0.533  -0.519  -0.031  -0.192  -0.222  -0.062   0.409   0.156  -0.143  -0.808   0.307   0.327   0.033
    0.258   0.531  -0.148  -0.270  -0.129   0.061  -0.571   0.157  -0.090  -0.459  -0.705  -0.148   0.135
    0.062  -0.006  -0.041   0.519   0.238  -0.419  -0.196  -0.284   0.224   0.293   0.644   0.593  -0.498
   -0.048   0.087  -0.014  -0.247   0.070  -0.013   0.147   0.393  -0.054  -0.109   0.179   0.266  -0.044
    0.126  -0.514  -0.377  -0.283  -0.005  -0.284  -0.373  -0.258  -0.172  -0.048  -0.401  -0.214  -0.369

    0.700  -0.725
    0.059   0.378   0.382  -0.549  -0.508   0.180  -0.289   0.317  -0.206  -0.076   0.207   0.303  -0.346
    0.218   0.226  -0.346   0.079  -0.135   0.290  -0.000  -0.182  -0.521   0.195   0.088  -0.052  -0.480
   -0.079  -0.371   0.432   0.089   0.182   0.226   0.209   0.593  -0.006   0.130   0.478  -0.024  -0.218
    0.520   0.286  -0.144   0.145   0.269  -0.326  -0.439  -0.025  -0.261  -0.204  -0.369  -0.091   0.211
   -0.266  -0.254  -0.176   0.618  -0.126  -0.266  -0.162   0.767   0.297  -0.024   0.129  -0.193  -0.051
   -0.508  -0.320  -0.140   0.673  -0.431   0.242  -0.351  -0.191  -0.240  -0.303  -0.010   0.224   0.141
   -0.415  -0.646  -0.175  -0.044   0.575   0.426  -0.725   0.024   0.196  -0.143  -0.559   0.341  -0.315
    0.053   0.055   0.122   0.164   0.637  -0.347   0.933  -0.403  -0.016  -0.077   0.560  -0.065  -0.001
    0.461  -0.279  -0.042  -0.068  -0.355  -0.031   0.126   0.174  -0.278  -0.897   0.267   0.415   0.127
    0.290   0.486  -0.181  -0.122   0.037  -0.038  -0.533   0.144  -0.152  -0.460  -0.720  -0.172   0.199
    0.104  -0.234   0.006   0.469   0.253  -0.329  -0.383  -0.331   0.146   0.309   0.628   0.436  -0.241
   -0.011   0.289  -0.022  -0.150   0.058  -0.050  -0.003   0.536  -0.034   0.044   0.232   0.153  -0.033
    0.256  -0.268  -0.247  -0.263  -0.094  -0.132  -0.355  -0.132  -0.223  -0.027  -0.368  -0.229  -0.397

    0.750  -0.786
    0.207   0.221   0.488  -0.630  -0.523   0.246  -0.304   0.233  -0.223  -0.138   0.174   0.173  -0.319
    0.283   0.320  -0.491  -0.035  -0.153   0.412   0.063  -0.150  -0.483   0.274   0.122  -0.118  -0.340
   -0.027  -0.455   0.499   0.081   0.179   0.099   0.236   0.447  -0.069   0.082   0.417   0.145  -0.189
    0.533   0.234  -0.300   0.061   0.391  -0.216  -0.582   0.029  -0.170  -0.068  -0.343  -0.155   0.161
   -0.230  -0.097  -0.126   0.365  -0.182  -0.207  -0.318   0.601   0.386  -0.250   0.247  -0.160  -0.089
   -0.567  -0.321  -0.257   0.496  -0.356   0.150  -0.295  -0.246  -0.313  -0.219   0.013   0.172   0.037
   -0.453  -0.651  -0.144  -0.024   0.420   0.436  -0.786   0.077   0.136  -0.046  -0.357   0.342  -0.397
    0.031   0.139  -0.010   0.273   0.544  -0.468   0.994  -0.367  -0.073  -0.110   0.453  -0.126  -0.114
    0.538  -0.388  -0.286   0.199  -0.431   0.010   0.197   0.121  -0.450  -0.896   0.395   0.493   0.264
    0.168   0.410  -0.086  -0.124   0.097   0.094  -0.509   0.207   0.029  -0.562  -0.739  -0.166   0.323
    0.186  -0.250   0.098   0.422   0.173  -0.317  -0.366  -0.289   0.371   0.249   0.678   0.465  -0.214
   -0.038   0.140   0.025  -0.175   0.026  -0.187   0.132   0.564   0.015  -0.011   0.195  -0.229   0.158
    0.323  -0.213  -0.288  -0.229  -0.055   0.051  -0.359  -0.146  -0.149   0.086  -0.242   0.032  -0.350

    0.800  -0.822
    0.363   0.381   0.357  -0.795  -0.525   0.287  -0.349   0.086  -0.291  -0.054   0.240   0.148  -0.431
    0.250   0.319  -0.630   0.120  -0.144   0.408  -0.034  -0.227  -0.446   0.496   0.136  -0.030  -0.387
   -0.013  -0.377   0.376   0.027   0.247   0.114   0.067   0.446   0.011   0.023   0.431   0.013  -0.198
    0.614   0.257  -0.209   0.155   0.259  -0.286  -0.599   0.159  -0.313  -0.102  -0.262   0.006   0.191
   -0.326  -0.184  -0.204   0.218  -0.335  -0.210  -0.431   0.543   0.385  -0.340   0.071  -0.345  -0.132
   -0.399  -0.443  -0.268   0.494  -0.405   0.364  -0.241  -0.396  -0.266  -0.212  -0.209   0.303  -0.004
   -0.343  -0.794  -0.085  -0.104   0.489   0.403  -0.822   0.030   0.228   0.010  -0.338   0.262  -0.358
    0.009  -0.088   0.178   0.066   0.568  -0.552   1.156  -0.359  -0.071  -0.026   0.519   0.008  -0.161
    0.544  -0.441  -0.307   0.285  -0.506   0.231   0.201  -0.044  -0.467  -0.701   0.415   0.523   0.262
    0.227   0.542   0.033  -0.094   0.108   0.193  -0.438   0.203  -0.102  -0.440  -0.714  -0.064   0.310
    0.096  -0.317  -0.178   0.447   0.398  -0.513  -0.243  -0.350   0.200   0.383   0.817   0.416  -0.100
    0.057   0.089  -0.016  -0.242   0.063  -0.164   0.197   0.550   0.096  -0.265   0.131  -0.159   0.044
    0.397  -0.357  -0.225  -0.143   0.175  -0.071  -0.110  -0.075  -0.206   0.075   0.021   0.136  -0.190

    0.850  -0.692
    0.254   0.319   0.276  -0.621  -0.328   0.279  -0.389   0.175  -0.258  -0.011   0.261   0.275  -0.451
    0.447   0.072  -0.676   0.157  -0.208   0.357   0.060  -0.105  -0.471   0.409   0.159  -0.029  -0.426
    0.084  -0.307   0.340  -0.044   0.113   0.066  -0.105   0.466   0.013   0.058   0.325  -0.117  -0.293
    0.665   0.227  -0.204   0.275   0.288  -0.280  -0.551   0.163  -0.087  -0.168  -0.260   0.041   0.378
   -0.185  -0.179  -0.311   0.242  -0.243  -0.192  -0.581   0.752   0.414  -0.483  -0.014  -0.362  -0.214
   -0.231  -0.394  -0.083   0.483  -0.380   0.217  -0.101  -0.553  -0.313  -0.264  -0.271   0.290  -0.104
   -0.393  -0.798   0.033  -0.071   0.533   0.352  -0.692   0.126   0.364   0.043  -0.475   0.284  -0.212
   -0.044  -0.090   0.368   0.179   0.319  -0.553   1.193  -0.379   0.081   0.030   0.566   0.052  -0.081
    0.717  -0.276  -0.286   0.092  -0.500   0.420   0.113  -0.146  -0.431  -0.562   0.385   0.539   0.392
    0.141   0.578   0.080  -0.028   0.033   0.341  -0.355   0.169  -0.075  -0.492  -0.800  -0.087   0.224
   -0.017  -0.205  -0.144   0.385   0.249  -0.452  -0.225  -0.353  -0.092   0.252   0.888   0.259  -0.204
    0.007   0.013  -0.069  -0.309   0.037  -0.198   0.003   0.544  -0.063  -0.082   0.113  -0.042  -0.100
    0.203  -0.337  -0.233  -0.054   0.262   0.040   0.087   0.131  -0.305   0.031   0.100   0.031  -0.051

    0.900  -0.497
    0.281   0.152   0.305  -0.517  -0.235   0.013  -0.408   0.273  -0.357  -0.013   0.046   0.313  -0.514
    0.521  -0.006  -0.673   0.257  -0.268   0.217   0.072  -0.167  -0.518   0.519   0.162  -0.119  -0.467
    0.227  -0.358   0.286   0.081   0.127  -0.078   0.067   0.530  -0.054  -0.110   0.118  -0.135  -0.173
    0.809   0.334  -0.120   0.154   0.488  -0.311  -0.498   0.411  -0.093  -0.255  -0.289  -0.016   0.359
   -0.070  -0.410  -0.276   0.061  -0.316  -0.216  -0.616   0.671   0.213  -0.687   0.294  -0.378  -0.125
   -0.292  -0.351  -0.038   0.496  -0.560   0.231  -0.111  -0.650  -0.336  -0.102  -0.395   0.038   0.062
   -0.226  -0.522   0.003  -0.012   0.396   0.628  -0.497   0.079   0.332   0.020  -0.554   0.329  -0.431
    0.014  -0.223   0.412   0.062   0.545  -0.542   1.173  -0.192  -0.162   0.038   0.369  -0.234   0.047
    0.637  -0.363  -0.230   0.085  -0.451   0.407  -0.027  -0.227  -0.472  -0.594   0.223   0.580   0.448
    0.238   0.513  -0.069  -0.057  -0.037   0.551  -0.485   0.390   0.258  -0.446  -0.758  -0.134   0.187
    0.006  -0.127  -0.027   0.371   0.262  -0.444  -0.276  -0.438  -0.211   0.083   0.708   0.264  -0.063
    0.091   0.091  -0.175  -0.334   0.112  -0.088   0.035   0.643  -0.123   0.009   0.206  -0.222  -0.227
    0.104  -0.235  -0.136  -0.132   0.185  -0.071  -0.019   0.121  -0.290   0.009  -0.040  -0.125  -0.039

    0.950  -0.430
    0.268   0.123   0.344  -0.633  -0.293  -0.030  -0.332   0.234  -0.336   0.077   0.098   0.197  -0.294
    0.349   0.093  -0.628   0.447  -0.084   0.106   0.173  -0.122  -0.143   0.454   0.303   0.004  -0.416
    0.228  -0.440   0.160   0.084   0.075  -0.163   0.252   0.493  -0.083  -0.172   0.319  -0.104  -0.227
    0.704   0.535  -0.370   0.224   0.346  -0.267  -0.611   0.310  -0.095  -0.156  -0.315  -0.030   0.467
    0.176  -0.301  -0.121   0.304  -0.268  -0.174  -0.484   0.653   0.236  -0.835   0.312  -0.173  -0.277
   -0.188  -0.404  -0.174   0.470  -0.703   0.356  -0.185  -0.632  -0.295   0.073  -0.299   0.062  -0.010
   -0.336  -0.381  -0.038   0.034   0.097   0.584  -0.430  -0.096   0.543   0.218  -0.511   0.362  -0.348
    0.058  -0.329   0.262   0.102   0.373  -0.536   1.234  -0.304  -0.164   0.105   0.399  -0.088  -0.101
    0.725  -0.284  -0.258   0.209  -0.378   0.274   0.130  -0.033  -0.484  -0.490   0.229   0.540   0.472
    0.353   0.548   0.159  -0.077  -0.161   0.527  -0.573   0.431   0.249  -0.275  -0.715  -0.255   0.277
    0.060  -0.105   0.203   0.380   0.438  -0.577  -0.270  -0.384  -0.157   0.026   0.677   0.383   0.014
    0.016   0.159  -0.269  -0.169   0.117  -0.072  -0.074   0.595  -0.131   0.054  -0.013  -0.197  -0.186
    0.240  -0.140  -0.296  -0.186   0.010  -0.056  -0.119  -0.095  -0.289   0.081   0.085  -0.160  -0.067

    1.000  -0.421
    0.234  -0.113   0.362  -0.551  -0.279   0.087  -0.209   0.068  -0.256  -0.051  -0.048   0.338  -0.123
    0.302   0.198  -0.643   0.302   0.124   0.077   0.062  -0.168  -0.221   0.279   0.218   0.091  -0.561
    0.191  -0.316   0.112   0.078  -0.046  -0.378   0.186   0.545  -0.061  -0.230   0.246  -0.113  -0.114
    0.668   0.314  -0.468   0.142   0.392  -0.420  -0.630   0.315  -0.023  -0.013  -0.331  -0.029   0.524
    0.055  -0.317  -0.230   0.231  -0.300  -0.184  -0.382   0.604   0.174  -0.969   0.503  -0.020  -0.219
   -0.139  -0.560  -0.108   0.382  -0.606   0.387  -0.183  -0.647  -0.173   0.337  -0.013  -0.164  -0.148
   -0.305  -0.370  -0.083  -0.043   0.026   0.686  -0.421   0.057   0.598   0.091  -0.437   0.198  -0.369
    0.017  -0.195   0.124   0.342   0.557  -0.279   1.126  -0.245  -0.010   0.077   0.411  -0.015  -0.066
    0.540  -0.273  -0.357   0.171  -0.292   0.223   0.217   0.213  -0.457  -0.612   0.073   0.514   0.358
    0.527   0.460   0.226  -0.030  -0.171   0.388  -0.589   0.214   0.158  -0.320  -0.618  -0.158   0.331
   -0.034  -0.296   0.165   0.227   0.187  -0.510  -0.073  -0.436  -0.265   0.065   0.628   0.324   0.122
    0.022   0.264  -0.202  -0.256   0.035   0.026  -0.053   0.528  -0.173  -0.048   0.132  -0.014  -0.154
    0.292  -0.058  -0.550  -0.115   0.127  -0.011  -0.070  -0.176  -0.121   0.041  -0.095  -0.086  -0.122

    1.050  -0.427
    0.195  -0.182   0.354  -0.641  -0.174   0.189  -0.108  -0.122  -0.223  -0.071  -0.042   0.372  -0.144