
This full-field turbulence file was generated by TurbSim (v1.06.00, 21-Sep-2012) on 17-Nov-2016 at 15:42:31.

 | u-comp |  Y  x  Z  | Grid Resolution (Y x Z) | Time-step | Hub Elev | Mean U |
            13    13      6.667      6.667          0.050      84.29     12.00

 Z Coordinates (m):
  -40.000 -33.333 -26.667 -20.000 -13.333  -6.667   0.000   6.667  13.333  20.000  26.667  33.333  40.000

 Y Coordinates (m):
  -40.000 -33.333 -26.667 -20.000 -13.333  -6.667   0.000   6.667  13.333  20.000  26.667  33.333  40.000

    0.000  13.805
   14.122  13.897  15.725  14.461  13.477  13.710  14.316  14.121  13.223  13.685  15.090  14.671  13.904
   13.809  12.761  13.691  14.982  14.697  14.257  15.327  13.931  14.826  15.381  12.985  12.709  13.016
   12.011  13.588  14.150  14.048  14.476  14.136  14.246  14.299  13.328  13.373  11.898  13.289  11.689
   12.786  13.711  13.582  13.902  13.823  15.031  13.979  14.214  12.664  13.059  11.516  13.584  12.680
   10.807  13.006  14.914  14.514  15.305  14.615  14.125  14.598  13.518  13.582  11.847  11.028  13.184
   11.655  12.832  14.219  13.938  14.253  14.391  13.709  13.433  14.272  12.214  12.828  12.585  11.967
   14.558  12.153  13.755  14.728  13.850  13.244  13.805  13.334  13.902  12.550  11.837  12.601  12.662
   13.933  12.322  13.157  13.056  12.730  13.275  13.703  12.537  12.411  12.338  12.003  12.776  12.700
   13.936  12.948  11.599  11.948  12.568  12.558  12.658  11.000  12.054  12.970  13.086  12.311  12.125
   12.010  13.192  11.892  11.117  11.212  11.258  11.693  12.333  11.685  12.239  13.197  12.909  12.846
   13.819  12.452  12.211  11.470  11.694  12.478  11.884  11.648  11.096  12.454  12.217  12.076  11.331
   12.282  12.781  11.566  10.779  11.462  10.687  11.859  12.595  11.444  13.669  12.856  11.699  11.510
   11.389  13.512  12.285  10.616  11.163  11.908  12.516  11.762  12.239  12.227  11.844  11.927  11.929

    0.050  13.658
   14.245  14.601  15.956  14.455  13.070  13.713  14.485  14.175  13.651  13.351  14.871  14.642  13.588
   13.861  12.809  13.592  15.187  14.861  14.416  15.394  13.915  14.851  15.620  12.887  13.194  13.216
   11.912  13.863  14.144  13.729  14.359  14.154  14.454  14.507  13.437  13.118  11.430  13.180  12.018
   13.178  13.814  13.628  14.318  14.164  15.253  13.741  14.174  12.787  12.801  11.315  13.390  12.420
   10.796  13.127  15.370  14.191  15.737  15.221  14.038  14.351  13.744  13.579  11.818  11.138  13.030
   11.475  12.702  13.789  13.611  14.263  14.529  14.129  13.553  14.251  12.488  12.606  12.308  12.134
   14.569  12.311  13.396  14.391  13.898  12.413  13.658  13.693  13.484  12.070  11.365  12.669  12.435
   14.341  12.771  12.577  13.270  12.692  13.410  13.463  12.770  12.869  12.260  11.817  12.759  12.741
   13.679  13.063  11.377  11.648  12.470  12.686  12.429  11.102  11.630  12.909  13.337  12.259  12.050
   12.376  13.150  11.907  11.392  11.377  11.515  11.636  12.432  11.306  11.677  13.342  13.037  12.957
   14.097  12.801  12.144  11.509  11.642  12.394  11.982  11.698  11.156  12.213  12.340  12.042  11.080
   12.171  12.281  11.547  10.571  11.881  10.924  11.675  12.694  11.757  13.758  12.937  11.780  11.295
   11.140  13.228  12.276  11.019  11.656  12.039  12.038  11.827  11.899  12.477  11.816  12.061  11.745

    0.100  13.641
   14.073  14.372  15.959  14.667  12.464  14.029  15.151  14.179  13.791  13.306  14.240  14.661  13.366
   13.219  12.728  13.344  15.507  15.220  14.538  15.411  14.031  14.929  15.889  12.610  12.868  13.113
   12.334  14.473  14.408  13.999  14.182  14.301  14.555  14.472  12.939  13.192  11.341  12.618  11.889
   13.242  13.857  13.162  13.983  14.564  15.161  13.630  14.113  12.753  12.893  10.915  12.690  11.963
   10.806  12.979  15.339  14.153  15.444  14.695  14.182  14.311  13.735  13.620  12.277  10.809  12.979
   12.091  13.024  14.222  13.530  14.574  14.493  14.115  13.368  14.284  12.333  12.145  12.192  12.150
   14.538  12.569  13.454  14.874  14.097  12.566  13.641  13.502  13.878  11.729  11.195  12.794  12.374
   14.395  12.976  12.659  13.663  12.859  13.291  13.240  12.681  12.998  12.207  11.203  12.888  12.613
   13.810  13.034  11.470  11.623  12.890  13.320  12.401  10.957  11.421  13.248  13.392  12.550  12.222
   12.478  13.620  11.674  11.834  11.744  11.454  12.172  12.553  11.461  11.691  12.804  13.265  13.074
   13.841  13.193  12.187  11.372  11.615  12.575  12.536  11.900  11.002  12.709  11.937  12.045  11.273
   12.001  12.501  11.638  10.783  11.804  10.724  11.594  12.675  11.771  13.666  12.741  11.939  10.937
   11.101  13.252  12.187  11.251  11.895  11.921  11.934  12.132  11.530  12.872  11.889  11.749  11.810

    0.150  13.398
   14.261  14.008  15.516  14.981  12.678  14.113  14.812  13.823  13.398  13.564  14.351  15.082  13.253
   13.157  12.467  13.069  15.629  14.931  14.519  15.932  13.941  14.974  15.898  12.877  12.937  13.312
   12.244  14.196  14.509  13.948  13.926  13.937  14.927  14.361  13.210  13.316  11.555  12.584  12.602
   13.144  13.668  12.951  14.255  14.322  15.263  13.592  13.780  12.615  13.129  11.005  12.373  11.664
   10.933  13.266  15.377  14.183  15.474  14.585  14.251  14.419  13.706  13.554  12.309  11.034  12.810
   12.038  13.124  14.160  13.632  14.244  14.517  14.052  13.875  13.850  12.387  12.457  12.031  12.522
   14.355  12.352  13.409  15.020  14.019  12.906  13.398  13.792  14.033  11.444  11.140  12.747  12.617
   14.402  13.132  13.127  13.838  12.795  12.899  13.214  12.790  12.832  12.107  11.018  12.623  12.722
   13.448  13.213  11.643  11.231  12.537  13.375  12.346  11.089  11.228  13.180  13.131  12.684  12.082
   12.793  14.124  11.466  12.010  12.329  11.273  11.732  12.474  11.488  11.539  12.562  13.033  12.717
   14.015  12.841  12.364  11.596  11.768  12.728  12.567  11.757  11.052  12.799  12.163  12.095  11.420
   11.752  13.102  11.825  10.625  11.844  10.840  11.337  12.698  11.447  13.368  12.685  12.116  11.665
   11.105  13.154  12.755  10.985  12.207  12.017  11.507  12.284  11.534  13.145  12.029  11.515  11.873

    0.200  13.527
   14.321  14.228  15.274  14.818  12.475  14.297  14.839  13.523  13.505  13.373  14.270  15.154  12.906
   12.815  12.692  13.314  15.560  15.278  14.114  15.352  13.808  14.738  16.097  13.274  13.123  13.235
   12.449  14.471  14.503  14.037  13.615  13.950  14.674  14.460  12.850  13.251  11.375  12.526  12.190
   12.678  13.547  13.696  14.064  14.357  15.140  13.839  13.588  12.696  13.174  11.099  12.384  12.048
   11.043  13.311  15.300  14.652  15.272  14.528  14.650  14.251  13.084  13.353  11.915  11.121  13.105
   12.127  12.903  14.377  13.098  14.655  13.679  13.666  13.790  13.902  12.439  12.522  12.435  12.407
   14.208  12.531  13.830  15.097  13.927  12.869  13.527  13.641  14.121  11.174  11.123  12.834  12.582
   14.487  13.324  13.384  14.188  12.449  13.347  13.266  12.541  12.359  11.922  11.480  13.023  12.421
   13.357  13.193  11.558  11.558  12.406  13.216  12.457  10.973  11.325  13.443  12.576  12.662  11.876
   12.801  13.990  10.958  12.217  12.352  11.349  11.698  12.581  11.286  11.247  12.269  13.027  12.484
   13.617  13.224  12.411  11.693  12.220  12.687  12.511  11.670  11.537  12.904  12.284  12.251  11.620
   11.683  12.532  12.134  10.404  11.554  10.859  11.248  12.580  11.453  13.430  12.490  12.494  11.922
   11.463  13.278  12.855  11.107  11.705  11.998  11.321  12.100  11.440  12.859  12.122  10.821  11.645

    0.250  13.526
   14.125  14.226  15.331  14.346  12.293  13.902  14.987  13.804  13.548  13.062  14.268  14.880  12.809
   13.014  12.175  13.510  15.710  15.178  14.214  15.535  14.021  14.785  15.621  13.320  13.281  13.261
   12.579  14.229  14.496  14.051  13.520  13.899  14.811  14.515  12.690  13.300  11.349  12.581  12.086
   12.557  13.296  14.011  13.841  14.592  14.904  14.304  13.639  12.372  13.162  11.106  12.418  12.127
   11.119  13.232  14.556  14.589  15.047  14.446  14.297  14.338  12.927  13.669  11.299  10.757  12.495
   11.985  12.691  14.268  13.464  14.340  13.823  14.004  13.590  13.742  11.978  12.114  12.408  12.152
   14.083  12.564  14.133  14.611  13.996  12.806  13.526  13.394  14.008  11.230  11.314  12.847  12.413
   13.945  13.810  13.572  13.784  12.478  13.797  13.206  12.450  12.735  12.179  11.558  13.176  12.477
   13.356  13.520  11.947  11.799  12.670  13.617  12.468  11.354  11.276  13.072  12.369  12.891  11.831
   13.050  13.970  10.952  11.868  12.111  11.729  11.666  12.462  11.188  11.328  12.566  13.268  12.370
   13.133  13.429  12.235  11.858  12.114  13.266  12.764  11.662  11.805  13.264  12.234  12.177  11.524
   12.059  12.346  11.962  10.709  11.368  10.995  11.408  12.568  11.473  13.628  12.601  12.617  11.362
   11.385  13.448  13.164  11.782  11.303  11.986  10.733  12.256  11.606  13.153  12.190  10.933  11.632

    0.300  13.436
   13.999  14.188  15.752  14.249  12.565  13.593  15.192  13.826  13.456  13.499  14.609  14.666  13.096
   12.684  11.824  13.333  15.827  14.951  13.999  15.813  14.198  14.819  15.199  12.978  13.038  13.156
   12.479  14.090  14.262  14.144  13.743  14.052  14.989  14.707  12.671  13.147  11.646  13.041  12.345
   12.554  13.173  14.074  13.975  14.538  14.760  14.256  13.319  12.704  12.832  11.208  12.293  12.493
   11.421  13.586  14.680  14.412  15.000  14.486  13.899  14.362  13.046  13.149  11.018  10.824  12.076
   11.674  12.559  14.353  13.223  14.237  13.706  13.836  13.855  13.746  12.096  12.132  12.425  12.631
   13.879  12.452  14.096  14.826  14.049  13.159  13.436  12.937  13.764  11.212  11.597  12.830  12.161
   13.809  13.585  13.427  14.200  12.591  13.919  13.258  12.927  12.797  11.722  12.038  13.514  12.849
   13.127  13.059  11.817  11.588  12.684  13.417  12.392  11.694  11.842  12.975  11.959  12.755  11.502
   12.850  14.541  10.977  11.885  12.245  11.807  12.056  12.364  11.336  11.552  12.520  13.348  12.216
   13.011  13.308  11.829  11.453  12.083  13.086  13.091  11.374  11.840  13.662  11.847  11.890  11.306
   12.440  12.388  11.995  10.969  11.362  10.965  11.438  12.624  11.110  13.632  12.713  12.352  11.159
   11.330  13.695  13.210  11.718  11.570  11.650  10.841  12.021  11.855  13.151  12.158  11.082  11.661

    0.350  12.911
   13.766  14.093  15.746  14.217  12.474  13.529  15.121  14.025  13.324  13.580  14.964  15.228  12.639
   12.400  11.896  13.067  15.301  14.710  14.400  16.127  14.327  15.023  15.362  12.435  13.235  13.218
   12.002  14.165  13.709  14.357  14.072  14.603  15.350  14.506  12.662  13.237  11.448  13.350  12.399
   12.666  13.442  14.190  13.747  14.160  14.765  14.387  13.230  12.766  13.404  10.935  12.029  12.501
   11.424  13.857  14.649  14.293  14.888  14.640  14.253  14.029  12.607  13.051  11.272  10.772  11.618
   11.791  12.575  14.079  13.189  13.973  13.764  14.058  13.924  13.796  12.117  12.166  12.101  12.536
   13.575  12.231  14.312  15.067  14.430  13.360  12.911  13.250  13.456  11.305  11.848  12.757  12.071
   14.046  13.787  13.609  14.059  12.259  13.755  13.095  13.320  12.511  11.942  12.242  13.377  13.022
   13.096  13.381  11.823  11.611  12.790  13.477  12.704  11.964  12.221  13.177  12.025  12.755  12.053
   12.978  14.444  11.267  11.870  11.794  11.845  12.169  12.075  12.259  11.632  12.597  13.101  12.233
   12.644  12.825  11.753  11.770  12.020  12.939  12.941  10.959  12.228  13.166  12.272  11.809  10.981
   12.332  12.561  11.977  11.256  11.546  10.760  12.084  12.652  11.503  13.954  12.680  12.645  11.116
   11.341  13.588  13.057  11.588  11.728  11.480  11.153  11.947  11.941  13.295  11.718  10.987  11.598

    0.400  13.466
   13.635  14.402  15.489  14.176  12.948  13.562  15.137  14.131  13.333  13.539  14.963  15.038  12.454
   12.346  11.863  13.176  15.419  14.198  14.419  16.289  14.261  15.951  14.859  12.506  13.169  13.313
   12.028  13.917  13.430  14.177  13.831  14.234  15.690  14.572  12.903  13.098  11.094  13.464  12.319
   12.328  13.471  13.639  13.789  13.975  14.710  14.135  13.249  12.691  13.396  11.162  11.763  12.336
   11.740  13.729  14.288  14.206  14.714  14.789  14.537  13.899  12.545  13.027  11.231  11.134  11.624
   11.285  12.368  14.019  13.261  14.097  13.679  14.469  13.892  13.593  12.115  12.068  12.044  12.606
   13.440  12.243  14.309  15.107  14.491  13.335  13.466  13.384  13.174  11.210  11.704  12.518  11.956
   13.736  13.910  13.856  13.796  12.847  13.751  13.389  12.911  12.230  12.034  12.096  13.596  13.098
   12.862  13.271  12.361  11.234  13.102  13.406  13.059  11.920  12.168  13.119  12.609  12.730  12.193
   13.260  14.820  11.397  12.020  12.223  12.157  11.813  11.939  12.234  11.645  12.581  13.348  12.104
   12.589  13.049  11.819  12.058  11.660  13.282  13.062  11.170  11.512  12.993  12.153  11.921  10.830
   12.285  12.647  11.743  11.577  11.526  10.320  11.949  12.485  11.651  14.113  12.434  12.691  11.121
   11.609  12.820  13.251  11.811  12.143  11.827  11.117  11.967  12.327  13.327  11.845  11.011  11.757

    0.450  13.273
   13.677  13.910  15.252  14.190  13.086  13.693  14.745  14.278  13.635  13.849  15.231  14.584  12.344
   12.319  12.103  13.420  15.429  13.993  14.104  16.323  14.021  15.666  15.070  12.518  13.683  13.045
   12.120  14.053  13.001  13.893  13.732  14.111  15.420  13.966  13.080  13.144  11.429  13.452  12.547
   12.320  13.934  13.609  14.076  14.236  14.863  14.487  12.707  12.509  13.433  11.483  11.323  12.247
   11.825  13.745  14.295  14.221  14.920  14.579  14.688  14.192  12.465  12.987  11.274  11.137  11.976
   10.888  12.463  13.682  13.605  13.782  13.468  14.083  13.988  13.338  12.158  12.342  12.350  12.439
   13.539  12.518  13.887  14.933  14.728  13.160  13.273  13.224  13.205  11.451  11.247  12.505  12.253
   13.841  14.014  13.571  14.263  13.015  13.552  13.665  12.528  12.855  11.871  12.130  13.184  13.175
   13.175  12.863  11.831  11.418  13.194  13.450  12.715  12.288  11.770  13.057  12.515  12.583  11.718
   13.712  14.769  11.279  11.523  12.113  11.918  11.693  12.279  12.582  11.625  12.313  13.524  12.066
   12.793  13.110  11.592  12.461  11.686  12.924  12.890  11.398  11.267  13.061  11.657  12.092  11.302
   12.444  12.539  11.636  11.637  11.443  10.600  11.968  12.375  11.362  13.967  12.657  12.623  11.167
   11.502  12.448  13.440  12.318  11.821  11.862  11.365  11.903  12.305  13.103  11.424  10.980  11.731

    0.500  13.085
   13.556  13.772  15.314  14.580  12.746  13.679  14.697  14.536  13.814  13.929  15.116  14.418  12.621
   12.549  11.555  13.376  15.275  13.583  14.242  16.440  13.524  15.183  15.037  12.456  14.184  13.275
   11.719  13.679  13.241  13.824  13.913  13.878  15.873  13.681  13.302  12.905  11.539  13.478  12.441
   12.153  14.137  13.831  13.660  13.888  14.799  14.545  12.641  12.885  13.469  10.958  11.379  12.715
   12.035  14.109  14.478  14.479  15.001  14.293  14.325  13.839  12.419  12.903  11.230  10.862  12.580
   11.335  12.892  13.803  13.977  13.693  13.159  13.710  13.988  13.554  12.049  12.059  12.444  12.206
   13.059  12.678  13.702  15.395  14.395  13.180  13.085  13.015  12.824  11.645  10.881  12.281  11.902
   13.672  13.566  13.832  14.270  13.380  13.469  14.343  12.594  12.843  12.270  12.329  12.616  12.989
   13.234  13.187  11.796  11.512  13.221  13.390  12.729  12.057  12.026  12.977  13.035  13.220  11.803
   13.570  14.390  11.230  12.019  12.162  11.975  11.730  11.985  12.415  11.015  12.402  13.359  12.380
   12.929  12.636  11.575  12.701  11.730  12.831  12.667  11.606  11.297  13.101  11.526  11.982  11.128
   12.586  13.029  11.995  11.772  11.485  10.415  12.211  12.412  11.312  13.986  13.182  12.893  11.599
   11.470  12.452  13.012  12.412  11.901  11.396  11.500  11.483  11.697  13.078  11.025  10.598  11.692

    0.550  12.961
   13.340  13.851  15.052  14.073  11.921  13.734  14.392  14.641  13.539  13.816  15.211  14.520  12.947
   12.308  11.724  13.342  14.711  13.697  13.963  16.430  13.684  14.934  14.680  12.523  14.282  13.472
   12.120  13.501  13.761  13.689  14.593  14.094  15.605  13.865  12.964  12.854  11.532  13.471  12.461
   12.071  14.105  13.596  13.568  13.954  15.113  14.410  12.779  13.282  13.058  10.840  11.064  12.881
   12.118  13.949  14.461  14.485  14.744  14.536  14.059  13.840  12.553  13.470  11.445  10.543  12.634
   11.194  12.868  13.893  14.064  13.855  13.598  13.370  14.140  13.444  12.151  12.162  12.473  12.113
   13.564  12.887  13.978  15.050  14.493  13.286  12.961  12.962  13.036  11.249  11.503  13.028  11.469
   13.986  13.548  13.751  14.523  13.056  13.389  14.450  12.753  13.084  12.463  12.271  12.715  13.353
   13.002  12.932  11.637  12.338  13.125  13.270  12.353  12.238  12.407  12.603  12.983  13.218  11.906
   13.492  13.993  11.367  12.213  12.630  12.000  12.233  12.070  12.376  11.572  12.587  13.161  12.643
   12.809  12.480  11.756  12.687  12.192  12.751  12.761  11.973  11.136  12.707  11.764  12.157  11.164
   12.882  12.830  11.682  11.149  11.686  10.583  12.484  12.548  11.502  13.727  12.671  12.717  11.421
   11.755  12.643  12.670  12.202  11.880  11.513  11.812  11.846  11.737  12.999  11.297  10.874  11.878

    0.600  13.460
   13.000  13.869  14.878  13.969  11.950  13.842  14.437  14.772  13.953  13.261  15.243  14.549  12.949
   12.344  11.805  13.374  14.796  13.197  13.888  16.253  13.604  15.037  14.689  12.288  14.677  13.223
   12.104  13.335  13.629  13.981  14.646  14.200  15.188  13.719  12.950  12.629  12.014  13.546  12.762
   12.021  14.131  13.617  13.785  13.838  14.932  14.002  13.033  12.812  13.132  10.874  11.142  12.851
   12.205  13.950  14.677  14.928  14.951  14.873  14.065  13.813  12.902  13.278  11.715  10.619  11.807
   11.410  12.828  14.005  14.140  13.888  13.932  13.555  14.005  13.310  12.313  11.468  12.039  12.218
   13.476  12.761  13.903  15.217  14.634  13.273  13.460  12.813  13.129  11.665  11.547  13.188  11.382
   14.096  13.905  13.569  14.401  13.284  13.116  14.444  12.399  13.587  12.426  12.546  12.399  13.583
   12.741  12.891  11.678  12.416  13.475  13.229  12.169  12.151  12.602  13.273  12.871  12.750  12.199
   13.380  13.551  11.191  11.855  12.862  12.434  12.212  12.126  12.410  12.299  12.900  13.191  12.318
   13.242  12.664  12.129  12.461  12.489  12.958  13.103  11.536  10.673  12.571  11.552  12.119  11.220
   13.139  12.523  11.623  11.414  11.807  10.563  12.667  12.149  11.596  13.657  12.307  12.278  11.435
   12.050  12.300  12.829  12.257  11.575  12.047  11.316  11.652  11.795  12.525  11.523  10.424  11.558

    0.650  13.349
   12.882  13.568  15.005  13.961  12.025  13.810  14.105  14.384  13.485  13.077  15.375  14.744  13.189
   11.946  11.794  13.605  14.775  13.158  14.077  15.941  13.694  14.821  14.991  12.551  14.515  13.194
   11.793  13.555  13.621  13.571  14.159  14.227  15.926  13.638  13.117  12.765  12.529  13.870  12.578
   12.508  14.059  13.839  14.127  13.305  15.078  13.885  13.186  12.193  13.122  10.522  11.117  12.536
   12.168  14.001  15.111  14.832  15.363  14.671  13.711  14.231  13.028  13.126  11.530  10.730  11.722
   11.944  12.863  13.684  13.913  13.934  13.975  13.867  13.698  13.069  12.285  11.299  12.392  11.922
   13.077  12.700  14.293  15.076  14.541  13.473  13.349  13.142  12.887  11.953  11.401  13.099  11.578
   14.109  14.141  13.492  14.209  13.420  12.883  14.361  12.288  13.202  12.349  12.729  12.452  13.717
   13.094  12.625  11.508  12.409  13.996  12.969  11.984  12.246  12.219  12.797  12.776  12.965  12.370
   14.049  13.330  11.122  12.058  13.240  12.475  12.448  11.975  12.445  12.172  13.245  13.127  12.026
   13.642  12.751  11.495  13.024  12.383  12.390  13.358  11.635  10.540  12.868  11.189  11.782  11.624
   13.214  12.634  11.440  11.235  11.824  10.639  12.885  12.703  11.700  13.653  12.226  12.799  11.419
   12.333  12.345  12.820  12.117  11.553  12.197  11.574  11.508  12.054  12.664  11.489  10.259  11.195

    0.700  13.170
   12.766  13.600  15.070  14.109  11.870  13.366  13.955  14.031  13.216  13.601  14.899  15.317  13.131
   11.994  11.826  13.667  14.647  13.518  14.276  16.327  13.524  14.496  15.127  12.379  14.264  13.511
   11.829  13.710  13.684  13.313  14.250  14.151  15.818  13.901  13.324  13.068  11.833  13.859  12.205
   12.469  13.608  13.866  14.268  13.437  14.849  13.682  13.139  12.093  12.924  10.595  11.382  12.198
   12.283  13.746  15.658  14.685  15.120  14.575  13.610  14.266  12.683  12.700  11.790  10.565  11.859
   12.069  12.982  14.001  13.796  13.782  13.914  14.024  13.606  12.933  11.830  11.647  12.628  11.694
   13.185  12.945  14.550  15.131  14.957  13.093  13.170  12.750  12.271  11.678  11.015  13.052  11.554
   14.199  13.843  13.172  13.966  13.559  13.026  14.565  13.040  13.468  12.349  12.869  12.149  13.887
   13.081  12.865  11.372  12.774  13.801  13.541  12.009  12.602  11.891  12.698  12.896  13.416  12.383
   14.297  13.441  11.034  12.277  12.973  12.554  12.350  12.117  13.020  11.811  12.942  13.404  11.847
   13.052  12.665  11.544  12.827  12.758  12.771  13.090  11.397  10.235  12.952  11.500  12.130  11.501
   13.058  12.658  11.500  11.314  11.815  11.110  13.416  12.862  11.816  13.520  12.517  13.069  11.555
   12.572  12.091  12.306  12.309  11.823  12.368  11.212  11.653  11.695  12.994  11.126  10.525  11.237

    0.750  13.355
   12.918  13.397  15.099  14.235  12.054  12.634  14.265  14.489  13.245  13.930  15.327  15.162  13.056
   12.085  12.180  13.594  15.023  13.630  14.379  16.405  13.195  14.443  14.675  12.356  13.914  13.205
   11.880  13.834  14.011  13.740  14.087  14.268  15.239  14.338  13.308  13.260  12.159  14.046  12.457
   12.868  13.484  13.420  14.544  13.999  14.793  13.425  12.955  11.757  12.624  10.743  11.612  11.919
   12.035  13.610  15.606  14.573  15.148  14.484  13.647  14.376  12.770  12.355  11.915  10.826  12.144
   12.618  12.983  13.927  13.576  13.676  13.771  13.432  13.838  13.294  11.975  11.860  12.572  11.812
   13.262  13.215  14.705  15.190  14.733  12.453  13.355  12.836  12.110  11.579  10.566  12.345  11.460
   14.187  13.887  13.355  13.885  14.057  12.768  14.172  12.879  13.546  12.168  12.907  12.115  13.827
   13.594  13.235  11.069  12.737  13.667  13.165  12.201  12.610  12.080  13.171  12.792  13.367  12.377
   13.929  13.559  11.101  12.414  12.757  12.251  12.379  12.304  12.896  11.489  13.329  13.361  11.831
   13.586  13.053  11.680  12.093  12.480  12.718  12.747  11.683  10.313  13.075  11.727  12.394  11.248
   12.940  12.898  11.981  11.325  11.625  11.111  12.976  12.992  11.985  13.130  12.457  12.546  11.499
   12.470  12.242  12.310  12.212  11.725  12.390  10.888  11.570  11.576  12.857  11.519  11.172  11.062

    0.800  13.076
   12.678  13.880  14.666  13.883  11.894  12.852  14.333  14.592  13.405  14.153  15.373  15.525  13.044
   11.765  11.964  13.487  14.999  13.618  14.710  16.167  13.582  14.463  14.421  12.685  13.565  13.445
   12.002  13.533  13.941  13.803  14.398  14.519  14.915  14.145  13.133  13.664  12.407  13.807  12.561
   12.857  13.538  13.287  14.755  14.183  14.675  13.745  12.413  12.034  12.208  10.618  11.547  12.060
   12.494  14.108  15.139  14.521  14.827  14.432  13.967  13.928  12.711  12.353  11.944  11.437  11.821
   12.452  12.747  13.897  13.909  13.881  13.536  12.533  13.780  13.231  11.831  12.021  12.323  11.954
   13.265  13.582  15.132  15.555  14.629  12.332  13.076  12.325  11.904  12.148  10.856  12.746  11.071
   13.966  13.319  13.404  14.026  13.723  12.912  13.704  12.614  13.772  12.004  12.710  12.652  13.530
   14.148  13.009  11.446  12.811  13.596  12.852  12.809  12.818  12.155  13.108  13.332  13.276  11.817
   14.319  13.465  11.118  11.980  12.580  12.431  12.540  12.593  13.089  11.658  13.212  13.313  11.771
   13.368  13.073  12.174  11.754  12.553  12.589  12.871  11.513  10.592  12.641  11.894  12.443  11.718
   13.038  13.075  12.107  11.030  11.695  11.118  12.644  13.342  12.282  12.456  12.346  12.246  11.595
   12.687  12.159  12.778  12.082  11.745  12.469  10.842  11.764  11.884  13.040  11.599  11.065  11.084

    0.850  12.902
   12.840  13.405  14.206  14.163  12.080  13.020  14.041  15.053  13.711  14.265  15.287  15.368  13.293
   12.080  11.965  13.645  14.617  13.689  14.755  16.422  13.806  14.387  14.610  12.714  14.013  13.640
   12.215  13.551  13.742  13.681  14.936  14.580  15.140  14.213  12.914  13.396  12.095  14.200  11.974
   12.714  13.144  13.178  14.712  14.372  14.452  14.057  12.956  12.297  12.251  10.876  11.812  11.737
   12.248  13.584  15.093  14.833  14.851  14.239  13.769  13.195  12.727  12.293  12.163  11.407  11.808
   12.752  12.733  14.317  13.781  13.688  13.183  12.534  14.081  12.598  11.894  12.221  12.279  12.010
   13.196  13.579  14.848  15.864  14.483  12.555  12.902  12.510  12.094  12.467  11.267  12.662  10.783
   13.816  13.430  12.783  14.066  13.423  12.554  14.013  12.442  13.694  11.982  12.524  12.819  13.501
   13.629  13.199  11.947  12.813  13.677  12.978  12.986  12.551  12.460  13.455  13.129  13.250  11.928
   13.902  13.745  11.526  12.254  12.545  12.285  13.258  12.201  13.153  12.014  13.063  13.094  11.757
   13.516  13.555  12.263  12.256  12.859  12.717  13.051  11.170  10.556  12.673  11.166  12.716  11.716
   12.863  12.973  12.247  11.052  11.781  11.481  12.247  13.135  12.540  12.178  12.771  12.284  11.336
   13.021  12.229  12.746  12.175  11.629  12.456  11.260  11.564  12.156  12.948  11.601  11.004  11.255

    0.900  12.493
   12.724  13.630  14.128  14.493  12.359  13.076  13.814  14.834  13.785  14.193  15.577  15.600  13.340
   11.788  12.123  13.351  14.291  13.202  14.833  16.133  13.814  14.362  14.612  12.804  14.137  13.476
   12.632  13.336  13.923  13.969  15.179  14.608  15.203  14.023  13.194  13.319  11.856  13.676  12.512
   13.113  12.870  13.239  14.775  14.381  14.462  14.240  13.375  12.605  11.980  10.828  11.977  11.644
   12.269  12.796  14.715  15.148  14.921  13.833  13.548  12.915  12.487  12.256  11.880  11.173  11.700
   12.288  12.883  13.728  13.560  13.771  13.375  12.799  14.256  12.426  12.231  11.976  12.200  12.306
   13.856  13.148  14.966  15.502  14.208  12.431  12.493  12.449  11.806  12.607  10.973  12.676  10.643
   13.925  13.677  12.759  13.861  13.594  12.531  13.904  12.520  13.582  12.180  12.564  12.694  13.467
   13.977  13.436  11.609  12.544  13.354  12.886  12.314  12.137  12.781  13.358  13.325  12.940  12.489
   13.808  13.489  12.001  12.630  12.484  12.205  13.477  12.164  12.952  12.199  13.414  12.830  11.091
   13.894  12.812  12.402  11.830  13.289  12.955  12.706  11.325  10.827  12.788  10.934  12.506  11.005
   12.894  13.141  12.316  11.234  11.453  11.696  12.010  13.042  12.587  12.306  12.250  12.556  11.525
   13.076  12.586  12.667  12.361  11.709  12.425  11.899  11.562  11.949  12.884  12.012  11.236  10.727

    0.950  12.408
   12.500  13.214  13.901  13.736  12.147  12.847  13.567  14.697  13.971  14.760  15.425  15.844  13.510
   12.009  12.514  12.704  13.959  13.320  14.585  15.539  13.500  14.502  14.771  12.834  14.156  13.646
   12.574  13.370  13.535  14.443  14.884  14.707  15.082  13.882  13.396  13.198  11.381  13.383  12.019
   12.947  13.401  13.240  14.550  14.699  14.603  13.843  13.422  12.719  12.328  10.890  12.291  11.788
   12.288  12.933  14.438  14.967  14.261  13.584  13.679  13.138  12.732  12.071  12.248  11.166  11.265
   12.460  12.754  13.837  13.773  13.418  13.184  13.063  14.448  12.271  11.782  11.489  12.286  12.747
   13.945  13.256  15.485  15.170  14.144  12.676  12.408  12.773  12.111  12.486  11.014  12.567  10.705
   13.754  13.986  12.891  13.920  13.674  12.302  14.033  12.685  13.578  12.140  12.234  12.351  13.554
   14.112  14.289  11.870  12.469  13.582  12.806  12.449  11.828  12.627  13.157  13.401  12.767  12.246
   13.350  13.156  12.445  13.122  12.827  12.061  13.086  12.550  13.153  12.480  13.651  12.815  11.048
   13.927  12.912  12.272  12.199  13.415  12.669  12.521  11.508  10.896  12.738  10.702  12.606  10.953
   12.851  13.236  12.149  11.099  11.689  11.632  11.650  13.151  12.764  12.592  12.364  12.712  11.204
   13.220  12.991  12.562  12.464  11.696  12.690  12.180  11.403  11.713  12.861  11.895  11.182  10.720

    1.000  12.689
   12.697  13.704  13.615  13.716  12.336  12.688  14.265  14.605  14.222  15.128  14.965  16.064  13.479
   12.384  12.915  12.275  13.893  13.945  14.126  15.182  13.396  14.281  14.726  12.416  14.256  13.792
   12.565  13.433  13.923  14.304  14.363  14.377  15.093  13.725  13.236  13.257  11.005  13.428  11.743
   12.556  13.110  13.010  14.441  14.560  14.539  13.641  13.085  12.751  12.556  10.880  12.109  11.479
   12.495  13.154  14.475  15.046  14.195  13.479  13.910  12.935  12.896  12.305  12.107  11.171  11.361
   12.159  12.851  13.954  13.228  13.350  13.571  13.027  14.440  12.495  11.717  11.444  12.381  12.344
   14.368  13.917  15.029  14.808  14.108  12.500  12.689  12.850  11.843  13.019  11.413  12.284  10.957
   13.208  13.736  13.160  14.028  13.663  12.112  13.862  12.035  13.495  11.910  12.899  12.307  13.326
   13.336  14.236  11.793  12.773  13.346  12.879  12.390  12.091  12.152  12.910  13.258  12.696  12.489
   13.387  13.123  12.145  13.408  13.405  12.216  13.179  11.963  12.969  12.317  13.674  12.448  10.855
   14.229  12.897  12.629  11.836  13.033  12.881  12.179  11.954  11.158  12.521  11.082  12.502  11.106
   12.455  13.244  12.421  10.935  12.007  11.487  11.863  13.040  12.501  12.451  12.464  12.929  11.186
   13.632  13.274  12.146  12.012  11.322  12.890  11.809  10.996  12.210  13.103  11.715  10.809  10.404

    1.050  12.901
   12.237  13.906  13.834  13.583  12.317  12.701  14.505  14.327  14.071  14.674  15.751  15.800  13.690