
This full-field turbulence file was generated by TurbSim (v1.06.00, 21-Sep-2012) on 11-Apr-2017 at 15:47:14.

 | u-comp |  Y  x  Z  | Grid Resolution (Y x Z) | Time-step | Hub Elev | Mean U |
            13    13     14.600     14.600          0.050      87.70      8.57

 Z Coordinates (m):
  -87.600 -73.000 -58.400 -43.800 -29.200 -14.600   0.000  14.600  29.200  43.800  58.400  73.000  87.600

 Y Coordinates (m):
  -87.600 -73.000 -58.400 -43.800 -29.200 -14.600   0.000  14.600  29.200  43.800  58.400  73.000  87.600

    0.000   8.541
    8.440   8.096   8.259   8.951   9.142   9.334   9.186   8.819   8.859   9.584   9.087   8.891   8.814
    8.251   8.417   8.978   8.814   8.926   9.326   9.556   8.828   9.112   9.224   9.946   9.130   9.088
    7.878   9.040   9.165   9.458   8.961   9.305   9.351   8.374   8.978   9.346   8.987   8.055   7.905
    8.656   8.557   8.545   8.443   8.324   8.763   9.066   8.497   8.912   8.020   8.710   8.462   8.528
    9.636   8.901   8.047   9.118   8.230   8.316   7.876   8.553   8.686   8.522   8.076   8.178   7.991
    8.790   9.261   9.085   8.707   8.205   8.034   7.771   8.043   8.405   8.406   7.431   7.828   8.449
    9.062   9.670   8.900   9.154   8.288   8.354   8.541   8.138   8.066   8.023   8.313   7.913   8.219
    8.879   9.066   8.817   8.811   8.838   7.949   7.907   7.668   8.213   7.153   7.487   7.349   7.346
    8.269   8.310   8.390   8.187   8.548   7.714   7.050   7.036   7.539   7.570   7.307   7.379   7.247
    7.059   7.527   8.288   7.779   7.894   7.103   6.784   6.552   7.047   7.440   7.485   7.140   7.373
    6.768   6.543   6.966   6.844   6.972   6.567   6.419   6.547   6.039   6.113   7.074   6.840   7.193
    5.642   6.376   5.575   5.218   5.765   6.121   5.168   5.220   5.735   5.392   6.077   5.132   6.166
    2.074   2.058   1.220   1.862   1.270   1.625   1.280   1.440   1.865   1.818   1.575   2.269   2.259

    0.050   8.436
    8.404   8.065   8.293   8.918   9.163   9.320   9.347   8.888   8.946   9.530   9.133   8.819   8.789
    8.274   8.690   8.885   8.633   8.865   9.161   9.337   8.881   9.117   9.212   9.908   9.060   9.090
    7.808   9.072   9.204   9.353   8.841   9.371   9.290   8.485   8.778   9.292   8.878   8.068   7.919
    8.983   8.534   8.539   8.445   8.383   8.783   8.967   8.518   8.899   8.062   8.728   8.251   8.423
    9.668   8.913   8.243   9.091   8.373   8.282   7.901   8.506   8.493   8.604   8.003   8.154   7.947
    8.748   9.219   9.210   8.639   8.193   7.927   7.786   8.123   8.419   8.346   7.363   7.861   8.375
    9.156   9.734   8.779   9.080   8.183   8.538   8.436   8.147   8.017   8.089   8.168   7.856   7.944
    8.907   9.074   8.600   8.730   8.947   7.945   8.078   7.604   8.146   7.218   7.335   7.258   7.552
    8.401   8.393   8.137   8.291   8.567   7.574   6.972   7.122   7.540   7.497   7.312   7.389   7.217
    7.113   7.668   8.164   7.875   7.767   7.029   6.884   6.548   7.187   7.272   7.391   7.068   7.220
    6.897   6.558   6.977   6.894   6.983   6.636   6.399   6.545   6.044   6.075   6.927   6.900   7.129
    5.763   6.419   5.563   5.136   5.830   6.043   5.156   5.258   5.695   5.459   6.037   5.015   6.269
    2.327   2.027   1.250   2.035   1.206   1.569   1.309   1.261   1.772   1.806   1.502   2.408   2.306

    0.100   8.468
    8.432   7.918   8.304   8.936   9.065   9.447   9.383   8.833   9.022   9.359   9.383   8.936   8.937
    8.147   8.808   8.918   8.749   9.036   9.259   9.229   9.012   9.197   9.364   9.917   9.029   9.101
    7.955   9.017   9.181   9.235   8.771   9.353   9.300   8.540   8.710   9.211   8.862   8.119   7.837
    8.985   8.375   8.464   8.513   8.547   8.834   9.032   8.502   9.013   8.223   8.572   8.219   8.392
    9.618   9.019   8.283   8.965   8.338   8.129   8.115   8.707   8.531   8.582   7.899   8.180   7.931
    8.714   9.170   9.041   8.515   8.237   7.697   7.783   7.965   8.371   8.308   7.268   7.726   8.391
    9.050   9.812   8.877   9.031   8.195   8.566   8.468   8.120   7.863   8.139   8.119   7.704   8.042
    8.805   9.088   8.445   8.781   8.951   8.036   8.075   7.471   8.104   7.303   7.322   7.363   7.610
    8.460   8.401   8.137   8.149   8.601   7.484   6.883   7.188   7.552   7.408   7.398   7.368   7.350
    7.000   7.719   8.126   7.891   7.553   7.010   6.824   6.600   7.141   6.985   7.378   7.137   7.195
    6.811   6.652   7.188   6.840   7.010   6.667   6.219   6.517   6.048   6.086   6.934   7.082   7.079
    5.668   6.575   5.416   5.035   5.707   6.042   5.316   5.248   5.696   5.491   5.858   4.970   6.285
    2.318   2.131   1.192   2.052   0.991   1.667   1.294   1.140   1.709   1.843   1.435   2.419   2.480

    0.150   8.391
    8.407   7.843   8.371   8.946   9.005   9.589   9.417   8.829   9.211   9.296   9.333   8.993   8.777
    8.400   8.687   8.787   8.664   9.106   9.237   9.287   8.883   9.213   9.453   9.915   8.931   9.009
    7.916   9.051   9.344   9.363   8.810   9.242   9.196   8.498   8.659   9.128   8.999   7.940   7.875
    8.765   8.426   8.525   8.573   8.437   8.665   9.036   8.547   8.970   8.264   8.600   8.446   8.460
    9.529   9.038   8.166   8.808   8.236   8.151   8.136   8.733   8.375   8.529   8.082   8.353   7.935
    8.661   9.159   9.089   8.450   8.082   7.811   7.729   7.876   8.507   8.198   7.346   7.741   8.313
    9.194   9.949   8.908   8.964   8.291   8.488   8.391   8.157   7.971   8.093   8.111   7.776   7.939
    8.667   8.829   8.389   8.808   8.884   8.014   8.170   7.462   8.232   7.154   7.251   7.509   7.467
    8.472   8.415   8.138   8.199   8.398   7.546   6.850   7.234   7.575   7.458   7.543   7.357   7.425
    6.945   7.701   8.003   7.888   7.498   6.954   6.694   6.614   7.154   7.078   7.551   7.110   7.138
    6.709   6.672   7.046   6.823   7.068   6.866   6.307   6.551   6.068   6.074   7.031   7.177   7.211
    5.728   6.454   5.441   5.183   5.493   6.116   5.352   5.298   5.670   5.487   6.042   5.147   6.299
    2.165   2.047   1.091   2.030   1.059   1.610   1.456   1.166   1.821   1.710   1.488   2.322   2.291

    0.200   8.565
    8.406   7.803   8.225   9.188   8.969   9.594   9.407   8.867   9.122   9.156   9.263   8.967   8.674
    8.492   8.875   8.785   8.617   9.063   9.257   9.161   9.019   9.321   9.456   9.830   8.916   8.992
    7.882   9.091   9.367   9.245   8.854   9.077   9.288   8.579   8.685   9.221   8.993   7.989   7.937
    8.844   8.416   8.405   8.577   8.352   8.867   9.052   8.672   9.076   8.182   8.533   8.480   8.465
    9.425   9.067   8.249   8.780   8.117   8.153   8.091   8.689   8.375   8.535   8.089   8.195   8.019
    8.521   9.138   9.018   8.576   8.183   7.874   7.903   7.773   8.625   8.257   7.119   7.962   8.316
    9.155   9.968   8.817   9.047   8.233   8.474   8.565   8.173   7.948   8.074   8.109   7.660   7.847
    8.494   8.891   8.595   8.727   8.931   8.094   8.083   7.529   8.175   6.963   7.205   7.584   7.539
    8.382   8.410   8.245   8.108   8.434   7.550   6.839   7.092   7.689   7.406   7.478   7.391   7.283
    6.973   7.819   7.967   7.797   7.633   7.029   6.763   6.778   7.402   7.036   7.663   7.139   7.327
    6.749   6.674   6.985   6.862   6.994   6.801   6.428   6.708   6.072   6.036   7.034   6.804   7.255
    5.851   6.472   5.585   5.287   5.455   6.297   5.174   5.391   5.646   5.443   5.936   5.136   6.286
    2.026   2.019   1.245   2.087   1.097   1.556   1.510   1.195   1.688   1.651   1.343   2.393   2.350

    0.250   8.685
    8.409   7.769   8.332   9.255   8.829   9.613   9.458   8.970   9.074   9.048   9.460   8.992   8.790
    8.354   8.956   8.733   8.552   8.985   9.139   9.239   9.219   9.289   9.513   9.788   8.752   9.058
    7.888   9.193   9.270   9.219   8.839   8.936   8.995   8.538   8.438   9.099   9.165   8.015   8.018
    8.857   8.284   8.347   8.559   8.391   8.981   9.004   8.653   9.039   8.275   8.656   8.358   8.307
    9.598   9.102   8.232   8.638   8.058   8.115   8.187   8.814   8.334   8.441   8.106   8.298   8.065
    8.519   9.320   9.036   8.532   8.276   7.859   7.756   7.969   8.565   8.137   7.220   7.887   8.388
    8.969  10.066   8.841   8.932   8.170   8.420   8.685   8.108   7.938   8.152   8.150   7.705   7.875
    8.584   8.854   8.580   8.808   8.936   8.078   7.958   7.579   8.163   6.930   7.219   7.502   7.617
    8.386   8.401   8.219   8.063   8.585   7.710   6.951   7.040   7.533   7.375   7.372   7.225   7.165
    7.039   7.677   7.998   7.798   7.354   6.921   6.668   6.752   7.249   7.114   7.489   7.115   7.314
    6.822   6.714   6.951   6.869   7.026   6.914   6.366   6.579   5.906   5.928   7.007   6.888   7.027
    5.947   6.341   5.463   5.315   5.405   6.399   5.143   5.319   5.728   5.186   5.951   4.955   6.079
    2.055   1.970   1.442   2.017   0.953   1.535   1.500   1.152   1.650   1.635   1.608   2.348   2.365

    0.300   8.610
    8.266   7.835   8.266   9.111   8.841   9.369   9.445   9.090   9.049   9.219   9.567   9.077   8.908
    8.360   8.694   8.694   8.552   8.980   9.043   9.341   9.294   9.297   9.618   9.569   8.829   8.946
    7.738   9.192   9.262   9.287   8.781   9.102   8.933   8.514   8.467   9.390   9.266   7.909   8.047
    8.671   8.106   8.268   8.561   8.316   8.927   8.976   8.572   8.980   8.505   8.803   8.393   8.348
    9.574   9.109   8.222   8.675   8.072   8.124   8.212   8.842   8.509   8.372   8.009   8.224   8.005
    8.565   9.244   9.065   8.435   8.270   7.759   7.610   7.850   8.606   8.197   7.095   7.862   8.345
    8.964  10.057   8.689   8.915   8.387   8.324   8.610   8.042   8.140   8.249   8.139   7.754   7.841
    8.595   8.698   8.445   8.794   8.994   8.029   8.116   7.526   8.062   6.924   7.213   7.360   7.624
    8.411   8.392   8.223   8.172   8.508   7.572   6.848   7.109   7.371   7.291   7.260   7.207   7.210
    6.884   7.725   8.166   7.845   7.368   6.851   6.669   6.795   7.147   7.114   7.584   7.176   7.282
    7.114   6.644   6.878   6.690   7.144   6.971   6.336   6.526   6.005   6.056   6.773   6.785   7.151
    5.857   6.166   5.498   5.287   5.574   6.412   5.100   5.234   5.817   5.382   6.018   4.936   5.961
    2.151   1.969   1.451   2.030   0.859   1.615   1.527   1.324   1.670   1.663   1.718   2.181   2.247

    0.350   8.667
    8.363   7.879   8.359   9.029   8.978   9.456   9.601   9.135   9.038   9.355   9.385   8.933   8.946
    8.299   8.670   8.737   8.561   8.972   8.983   9.268   9.086   9.255   9.816   9.412   8.912   8.890
    7.827   8.995   9.275   9.259   8.745   9.265   8.985   8.598   8.478   9.341   9.426   8.081   8.178
    8.509   8.169   8.335   8.730   8.265   8.866   8.858   8.593   9.105   8.440   8.823   8.177   8.406
    9.471   9.126   8.220   8.650   8.219   8.079   8.300   8.745   8.295   8.270   7.990   8.272   8.032
    8.439   9.153   9.068   8.445   8.192   7.657   7.598   7.838   8.715   8.234   7.143   7.839   8.457
    9.022  10.110   8.763   8.907   8.464   8.290   8.667   8.143   8.007   8.318   8.244   7.809   7.888
    8.700   8.857   8.526   8.837   9.036   8.014   8.234   7.648   8.019   6.866   7.302   7.350   7.705
    8.261   8.383   8.278   8.363   8.551   7.635   6.993   7.211   7.388   7.288   7.229   7.272   7.101
    6.855   7.796   8.058   7.919   7.442   6.936   6.841   6.864   7.178   7.277   7.582   7.161   7.295
    7.136   6.685   6.746   6.709   7.008   7.012   6.424   6.557   6.072   5.962   6.835   6.696   7.059
    5.850   6.135   5.625   5.264   5.519   6.499   5.085   5.288   5.727   5.322   6.082   5.044   5.812
    2.139   1.859   1.407   1.929   0.863   1.662   1.523   1.421   1.686   1.709   1.546   2.253   2.186

    0.400   8.777
    8.338   7.879   8.440   8.968   8.838   9.322   9.448   8.980   9.070   9.437   9.259   8.824   9.014
    8.487   8.718   8.841   8.650   8.990   8.980   9.331   9.151   9.221   9.906   9.352   8.828   8.989
    7.754   8.986   9.356   9.273   8.736   9.312   8.964   8.656   8.645   9.235   9.353   8.162   8.007
    8.461   8.213   8.180   8.703   8.221   8.877   8.919   8.729   9.259   8.483   8.659   8.134   8.308
    9.682   9.131   8.232   8.604   8.270   8.003   8.375   8.811   8.336   8.235   8.152   8.336   8.019
    8.358   9.105   8.807   8.583   8.206   7.635   7.597   7.927   8.749   8.304   7.125   8.030   8.353
    8.885  10.247   8.759   8.949   8.452   8.227   8.777   8.119   7.993   8.462   8.279   7.739   7.926
    8.592   8.914   8.678   8.979   8.932   7.954   8.121   7.571   8.081   6.925   7.359   7.357   7.705
    8.295   8.357   8.209   8.490   8.631   7.664   7.032   7.196   7.469   7.199   7.291   7.463   7.225
    6.962   7.815   8.147   8.061   7.455   7.077   7.116   6.916   7.205   7.417   7.692   7.166   7.188
    7.137   6.596   6.811   6.676   7.020   7.041   6.392   6.456   6.026   5.993   6.868   6.791   7.268
    5.872   6.129   5.617   5.389   5.438   6.368   5.233   5.272   5.714   5.339   6.055   5.122   5.760
    1.940   1.848   1.484   1.956   0.954   1.560   1.439   1.517   1.781   1.715   1.497   2.243   2.428

    0.450   8.847
    8.331   7.857   8.471   8.966   8.735   9.425   9.307   9.212   8.947   9.443   9.277   8.950   9.136
    8.433   8.801   8.937   8.705   9.017   9.078   9.323   9.080   9.261   9.747   9.496   8.634   9.035
    7.711   9.106   9.264   9.323   8.857   9.220   9.103   8.569   8.833   9.123   9.194   8.367   8.013
    8.584   8.209   8.287   8.486   8.303   8.880   8.737   8.977   9.278   8.604   8.572   8.126   8.322
    9.638   9.065   8.444   8.722   8.365   8.037   8.249   8.866   8.368   8.222   8.041   8.389   8.077
    8.476   9.257   8.865   8.610   8.289   7.695   7.553   7.917   8.771   8.391   7.136   8.117   8.289
    8.873  10.227   8.862   9.066   8.419   8.292   8.847   8.029   7.897   8.442   8.270   7.705   7.736
    8.639   8.990   8.802   8.855   8.840   8.077   7.875   7.477   8.172   6.964   7.364   7.253   7.596
    8.228   8.333   8.109   8.250   8.496   7.532   7.099   7.164   7.450   7.240   7.277   7.463   7.283
    6.969   7.886   8.116   8.088   7.425   7.204   6.888   6.872   7.235   7.585   7.708   7.418   7.130
    7.069   6.608   7.052   6.537   7.072   7.029   6.317   6.485   6.033   5.967   6.797   6.835   7.266
    5.803   6.046   5.585   5.285   5.448   6.274   5.354   5.302   5.613   5.363   5.967   5.241   5.818
    1.761   1.808   1.564   1.958   1.049   1.579   1.665   1.447   1.724   1.840   1.560   2.313   2.459

    0.500   8.880
    8.476   7.812   8.572   8.997   8.883   9.517   9.188   9.210   8.900   9.345   9.274   8.879   9.141
    8.461   8.750   8.977   8.611   9.036   9.020   9.234   9.190   9.207   9.681   9.498   8.616   9.023
    7.762   9.046   9.149   9.522   8.802   9.107   9.159   8.436   8.730   9.130   9.178   8.340   8.006
    8.585   8.201   8.341   8.526   8.423   8.808   8.588   8.912   9.234   8.605   8.640   8.195   8.302
    9.508   9.112   8.386   8.808   8.435   8.270   8.219   8.878   8.405   8.336   8.126   8.393   8.012
    8.565   9.115   8.884   8.595   8.445   7.785   7.673   7.885   8.791   8.519   7.255   8.149   8.368
    8.992  10.120   8.937   9.020   8.451   8.222   8.880   8.108   7.931   8.391   8.253   7.693   7.739
    8.851   8.976   8.773   8.682   8.955   8.074   7.936   7.303   8.121   7.096   7.281   7.326   7.536
    8.354   8.247   8.068   8.175   8.496   7.319   7.163   6.992   7.272   7.271   7.318   7.309   7.284
    6.959   7.698   8.336   8.041   7.421   7.146   6.871   6.901   7.321   7.761   7.663   7.584   7.195
    7.082   6.467   7.171   6.315   6.963   7.048   6.185   6.745   6.181   5.956   6.996   6.844   7.105
    5.900   6.150   5.557   5.314   5.280   6.481   5.360   5.287   5.644   5.455   6.076   5.190   5.984
    1.944   1.708   1.728   1.910   0.959   1.671   1.591   1.516   1.602   1.660   1.630   2.459   2.369

    0.550   9.062
    8.499   7.804   8.644   9.010   8.910   9.407   9.165   9.120   8.840   9.364   9.308   8.904   9.128
    8.479   8.768   8.788   8.670   9.058   9.107   9.277   9.289   9.335   9.624   9.221   8.755   9.167
    7.816   8.877   9.191   9.459   8.843   9.154   8.999   8.350   8.631   9.108   9.224   8.280   8.008
    8.552   8.309   8.431   8.563   8.479   9.002   8.622   8.998   9.229   8.469   8.765   8.246   8.334
    9.756   9.263   8.382   8.770   8.289   8.466   8.137   8.870   8.470   8.221   8.152   8.442   7.799
    8.398   9.171   8.887   8.610   8.412   7.764   7.523   7.824   8.851   8.521   7.255   8.218   8.534
    8.977  10.090   8.832   8.963   8.537   8.100   9.062   8.056   7.914   8.149   8.279   7.676   7.772
    9.051   9.014   8.907   8.722   9.057   8.211   8.083   7.340   8.216   7.101   7.286   7.218   7.536
    8.395   8.130   8.118   8.281   8.439   7.344   7.288   6.921   7.289   7.289   7.122   7.227   7.382
    7.023   7.646   8.428   8.062   7.440   7.283   6.944   6.836   7.220   7.795   7.732   7.691   7.298
    7.099   6.408   7.449   6.223   6.926   7.128   6.172   6.803   5.994   6.070   6.910   6.982   7.188
    5.878   6.094   5.726   5.308   5.315   6.481   5.393   5.312   5.737   5.451   6.034   5.343   5.935
    1.808   1.646   1.819   1.917   0.902   1.582   1.408   1.532   1.548   1.802   1.628   2.561   2.324

    0.600   9.150
    8.460   7.821   8.624   8.946   8.891   9.492   9.180   9.050   8.621   9.388   9.358   8.906   8.991
    8.519   8.696   8.711   8.514   9.008   9.076   9.385   9.377   9.359   9.752   9.112   8.676   9.131
    7.748   8.917   9.025   9.372   8.928   9.114   9.062   8.522   8.753   9.145   9.162   8.308   7.923
    8.464   8.362   8.438   8.765   8.526   8.979   8.481   9.044   9.308   8.449   8.897   8.175   8.353
    9.685   9.252   8.303   8.733   8.333   8.593   8.183   8.752   8.628   8.369   8.054   8.398   7.819
    8.415   9.070   9.028   8.667   8.362   7.696   7.595   7.525   8.642   8.494   7.283   8.251   8.455
    9.033  10.036   8.892   9.002   8.614   8.110   9.150   8.090   7.931   8.116   8.234   7.721   7.706
    9.119   8.870   8.789   8.805   8.844   8.167   8.076   7.476   8.246   7.154   7.245   7.214   7.392
    8.347   8.284   8.144   8.406   8.432   7.297   7.163   7.011   7.269   7.352   7.159   7.396   7.336
    6.850   7.727   8.450   7.810   7.416   7.253   6.912   6.846   7.286   7.507   7.674   7.537   7.280
    6.860   6.475   7.346   6.483   6.847   7.136   6.081   6.814   6.078   6.104   7.000   7.198   7.261
    6.002   6.079   5.832   5.409   5.426   6.467   5.383   5.290   5.707   5.399   6.100   5.361   5.849
    1.805   1.643   1.813   1.771   0.954   1.560   1.445   1.574   1.481   1.883   1.595   2.732   2.404

    0.650   9.050
    8.473   8.045   8.583   9.034   9.063   9.442   9.160   9.026   8.734   9.317   9.413   9.051   8.913
    8.575   8.470   8.904   8.428   9.113   9.099   9.392   9.226   9.251   9.660   8.989   8.715   9.188
    7.866   9.047   9.170   9.390   8.977   9.181   9.139   8.470   8.995   9.026   9.189   8.397   7.891
    8.465   8.316   8.469   8.967   8.675   8.959   8.479   8.990   9.391   8.462   8.939   8.226   8.430
    9.656   9.119   8.359   8.711   8.445   8.361   8.247   8.620   8.681   8.374   8.054   8.571   8.059
    8.629   8.991   9.055   8.648   8.235   7.666   7.633   7.550   8.519   8.526   7.248   8.310   8.205
    9.014   9.996   8.927   8.979   8.581   8.116   9.050   8.266   7.804   8.142   8.150   7.786   7.679
    9.134   8.695   8.676   8.881   8.863   8.046   8.141   7.489   8.337   7.266   7.329   7.264   7.336
    8.335   8.226   8.176   8.595   8.483   7.556   7.016   7.176   7.330   7.449   7.190   7.369   7.172
    6.923   7.567   8.451   8.038   7.557   7.303   6.898   6.934   7.405   7.418   7.634   7.288   7.124
    6.897   6.591   7.173   6.461   6.850   7.150   6.110   6.759   6.297   6.241   7.050   6.986   7.151
    6.004   6.113   5.730   5.558   5.380   6.417   5.497   5.291   5.819   5.467   6.053   5.478   5.785
    1.886   1.783   1.793   1.858   1.055   1.560   1.487   1.565   1.335   1.905   1.773   2.585   2.403

    0.700   8.972
    8.443   8.001   8.434   9.080   9.053   9.354   9.246   8.949   8.825   9.234   9.325   9.138   8.855
    8.600   8.389   9.069   8.466   9.377   9.222   9.388   9.201   9.190   9.304   9.014   8.834   9.180
    8.096   9.072   9.224   9.601   8.941   9.079   9.079   8.346   8.905   9.012   9.163   8.424   7.903
    8.541   8.289   8.435   8.965   8.799   8.733   8.538   8.901   9.362   8.614   8.658   7.993   8.500
    9.572   9.178   8.358   8.720   8.577   8.470   8.312   8.727   8.775   8.309   8.040   8.471   8.241
    8.663   8.867   8.988   8.692   8.260   7.767   7.696   7.678   8.668   8.542   7.172   8.383   8.252
    8.987   9.950   9.023   9.042   8.598   8.142   8.972   8.248   7.912   8.006   8.299   7.977   7.815
    9.108   8.767   8.592   8.890   8.928   8.070   8.326   7.422   8.282   7.084   7.305   7.383   7.341
    8.279   8.321   8.207   8.769   8.413   7.500   6.921   7.258   7.282   7.507   7.262   7.395   7.130
    7.003   7.317   8.319   7.982   7.591   7.152   6.907   6.836   7.569   7.385   7.416   7.305   7.135
    6.999   6.614   7.225   6.349   6.652   7.293   5.995   6.724   6.150   6.330   6.990   7.127   7.348
    5.975   6.207   5.756   5.690   5.477   6.349   5.444   5.341   5.750   5.438   6.043   5.515   5.716
    1.853   1.748   1.841   1.906   1.077   1.502   1.590   1.653   1.348   1.883   1.806   2.451   2.488

    0.750   8.815
    8.410   8.151   8.403   9.170   9.103   9.339   9.203   8.955   8.816   9.270   9.187   9.051   8.682
    8.619   8.495   9.098   8.391   9.463   9.327   9.334   9.080   9.236   9.363   8.806   8.988   8.905
    8.093   9.101   9.275   9.724   8.993   9.141   9.036   8.247   8.923   9.113   9.025   8.391   7.799
    8.486   8.400   8.558   8.813   8.951   8.471   8.553   8.871   9.342   8.453   8.621   7.987   8.468
    9.490   9.241   8.516   8.818   8.721   8.556   8.271   8.770   8.761   8.300   8.122   8.492   8.135
    8.681   8.773   9.029   8.863   8.232   7.857   7.611   7.673   8.665   8.511   7.159   8.315   8.450
    9.139   9.781   8.988   8.994   8.605   8.194   8.815   8.213   7.954   7.920   8.289   7.973   7.660
    9.123   8.726   8.731   8.862   9.002   8.038   8.387   7.422   8.099   7.171   7.388   7.141   7.496
    8.267   8.379   8.324   8.878   8.401   7.466   7.126   7.259   7.460   7.525   7.288   7.540   7.082
    6.803   7.265   8.347   7.908   7.557   7.253   7.022   6.723   7.498   7.344   7.502   7.385   7.244
    7.039   6.738   7.282   6.118   6.760   7.269   6.034   6.888   6.251   6.234   6.909   7.224   7.392
    5.988   6.078   5.858   5.610   5.475   6.358   5.363   5.397   5.880   5.415   6.099   5.434   5.737
    1.913   1.758   1.824   1.937   1.132   1.465   1.596   1.485   1.380   1.700   1.744   2.403   2.417

    0.800   8.725
    8.459   8.105   8.513   9.109   8.957   9.333   9.180   8.993   8.775   9.111   9.211   8.969   8.828
    8.406   8.633   9.160   8.338   9.560   9.324   9.305   8.977   9.226   9.418   8.974   8.983   8.906
    7.972   9.048   9.280   9.696   8.972   9.162   9.171   8.342   8.929   9.214   9.037   8.429   7.758
    8.396   8.345   8.734   8.770   8.784   8.430   8.546   8.776   9.455   8.405   8.544   8.034   8.493
    9.435   9.274   8.585   8.808   8.782   8.365   8.304   8.821   8.779   8.412   8.092   8.559   8.161
    8.665   8.897   8.973   8.867   8.147   7.928   7.700   7.664   8.584   8.479   7.096   8.261   8.606
    9.142   9.753   9.000   8.952   8.513   8.315   8.725   8.185   7.978   7.911   8.309   8.208   7.443
    9.054   8.720   8.713   8.837   8.960   7.978   8.450   7.493   8.153   7.087   7.515   7.033   7.492
    8.258   8.321   8.265   8.621   8.348   7.447   7.133   7.308   7.530   7.691   7.283   7.764   7.109
    6.776   7.313   8.303   8.014   7.533   7.384   7.043   6.749   7.376   7.248   7.487   7.426   7.281
    7.005   6.837   7.392   6.216   6.934   7.361   6.116   6.861   6.232   5.998   6.926   7.317   7.361
    5.888   5.968   5.864   5.513   5.383   6.508   5.371   5.327   5.922   5.382   6.225   5.559   5.710
    2.032   1.686   1.859   1.844   1.295   1.413   1.575   1.505   1.385   1.903   1.625   2.352   2.414

    0.850   8.623
    8.350   8.131   8.742   8.927   8.966   9.438   9.107   9.081   8.683   9.007   9.213   8.912   9.003
    8.435   8.657   9.401   8.401   9.624   9.212   9.181   9.068   9.099   9.439   8.965   8.968   8.834
    7.972   9.042   9.140   9.776   9.076   9.118   9.274   8.503   8.864   9.114   9.076   8.304   7.738
    8.290   8.398   8.671   8.717   8.786   8.477   8.536   8.829   9.244   8.616   8.474   8.068   8.389
    9.344   9.260   8.455   8.881   8.789   8.293   8.325   8.695   8.689   8.333   8.248   8.469   8.194
    8.497   8.866   8.989   8.786   8.037   7.961   7.807   7.578   8.588   8.348   7.101   8.349   8.543
    9.274   9.709   8.993   8.977   8.382   8.231   8.623   8.305   7.831   7.942   8.398   8.161   7.468
    9.077   8.860   8.775   8.854   8.789   7.926   8.461   7.497   8.147   7.025   7.640   6.858   7.428
    8.290   8.341   8.224   8.912   8.304   7.376   7.008   7.341   7.587   7.667   7.413   7.656   7.030
    6.641   7.382   8.367   8.132   7.474   7.259   7.127   6.769   7.399   7.421   7.417   7.411   7.391
    7.034   6.780   7.534   6.335   7.042   7.291   6.035   6.754   6.361   5.953   6.690   7.329   7.379
    5.804   5.981   5.869   5.505   5.449   6.360   5.373   5.207   5.987   5.444   6.117   5.535   5.875
    2.070   1.770   2.044   1.795   1.193   1.280   1.416   1.430   1.439   2.027   1.730   2.171   2.265

    0.900   8.625
    8.501   8.228   8.834   9.053   8.884   9.369   9.096   9.222   8.794   9.086   9.120   8.858   9.109
    8.509   8.704   9.500   8.453   9.787   9.139   8.997   9.048   9.291   9.421   8.952   8.783   8.923
    8.105   9.130   9.086   9.889   9.060   9.102   9.241   8.701   8.813   9.107   9.026   8.535   7.947
    8.260   8.356   8.650   8.544   8.740   8.531   8.530   8.914   9.271   8.742   8.394   8.093   8.492
    9.254   9.109   8.426   8.785   8.735   8.313   8.403   8.803   8.602   8.321   8.223   8.476   8.066
    8.414   8.893   8.874   8.736   8.067   8.018   7.766   7.617   8.598   8.258   7.102   8.264   8.442
    9.259   9.829   9.015   8.820   8.412   8.098   8.625   8.408   7.846   8.001   8.515   8.132   7.526
    9.013   8.742   8.719   8.790   8.731   7.944   8.588   7.575   8.116   6.937   7.623   6.879   7.273
    8.393   8.416   8.272   8.767   8.189   7.439   6.891   7.323   7.634   7.736   7.358   7.513   7.042
    6.804   7.336   8.340   8.137   7.468   7.283   7.241   6.853   7.327   7.511   7.579   7.441   7.226
    7.156   6.871   7.581   6.418   7.124   7.265   6.070   6.834   6.211   6.045   6.699   7.463   7.445
    5.686   5.953   5.919   5.524   5.440   6.186   5.205   5.301   5.998   5.476   6.065   5.705   5.981
    2.087   1.648   2.085   1.833   1.139   1.469   1.376   1.396   1.338   1.967   1.671   2.188   2.368

    0.950   8.642
    8.521   8.238   8.802   8.832   8.975   9.264   9.200   9.190   8.961   9.122   9.035   8.825   9.072
    8.454   8.786   9.403   8.429   9.767   9.166   9.019   9.163   9.285   9.415   9.158   8.827   8.856
    8.084   9.044   8.995   9.851   8.930   9.030   9.384   8.699   8.667   9.093   9.004   8.656   7.916
    8.072   8.084   8.767   8.654   8.582   8.479   8.667   9.084   9.137   8.732   8.373   8.078   8.532
    9.366   9.090   8.266   8.812   8.756   8.368   8.335   8.716   8.556   8.416   8.123   8.448   7.985
    8.565   8.852   8.879   8.698   7.984   8.123   7.840   7.776   8.535   8.113   6.991   8.091   8.470
    9.275   9.787   9.190   8.943   8.510   8.032   8.642   8.363   7.939   8.052   8.497   8.224   7.596
    9.050   8.818   8.706   8.802   8.706   7.971   8.582   7.517   8.131   6.998   7.616   6.990   7.316
    8.434   8.356   8.187   8.661   8.056   7.480   6.833   7.494   7.504   7.681   7.400   7.594   6.995
    6.992   7.263   8.368   8.154   7.544   7.489   7.423   6.920   7.234   7.401   7.602   7.523   7.206
    7.052   6.930   7.393   6.437   7.025   7.239   6.169   6.942   6.164   5.970   6.675   7.533   7.502
    5.672   5.907   5.869   5.587   5.365   6.031   5.038   5.109   5.949   5.642   6.069   5.575   5.947
    2.019   1.692   2.216   1.954   0.970   1.510   1.395   1.385   1.534   1.883   1.702   2.362   2.405

    1.000   8.633
    8.578   8.208   8.714   8.689   8.971   9.483   9.204   9.053   8.980   8.911   9.017   8.853   8.963
    8.392   8.917   9.313   8.498   9.838   9.207   9.000   9.272   9.246   9.289   9.158   8.906   8.758
    7.899   8.998   9.007   9.745   8.851   9.001   9.399   8.684   8.598   9.150   8.965   8.761   8.002
    8.009   8.075   8.735   8.695   8.547   8.497   8.678   9.103   9.062   8.719   8.463   8.101   8.588
    9.405   9.069   8.380   8.865   8.848   8.262   8.340   8.878   8.564   8.472   8.074   8.353   8.120
    8.667   8.935   8.830   8.676   7.951   8.067   7.685   7.816   8.554   8.337   7.151   8.017   8.531
    9.263   9.756   9.316   8.938   8.631   8.130   8.633   8.188   8.030   7.994   8.574   8.168   7.535
    9.129   8.935   8.893   8.907   8.654   8.048   8.733   7.528   8.063   6.930   7.699   6.843   7.344
    8.340   8.379   8.103   8.613   8.016   7.452   6.811   7.536   7.497   7.477   7.343   7.635   6.982
    6.920   7.378   8.388   8.199   7.395   7.561   7.381   6.906   7.232   7.491   7.538   7.436   7.334
    7.008   6.962   7.372   6.346   6.897   7.467   6.177   6.974   6.277   6.129   6.617   7.499   7.431
    5.702   5.837   5.862   5.529   5.274   5.926   5.129   5.057   5.845   5.799   6.154   5.594   5.977
    2.044   1.489   2.353   1.849   0.902   1.493   1.378   1.383   1.645   1.751   1.711   2.198   2.439

    1.050   8.689
    8.774   8.080   8.828   8.938   8.899   9.361   9.282   8.984   8.994   9.009   8.921   8.848   9.108