
This full-field turbulence file was generated by TurbSim (v1.06.00, 21-Sep-2012) on 17-Nov-2016 at 15:41:36.

 | u-comp |  Y  x  Z  | Grid Resolution (Y x Z) | Time-step | Hub Elev | Mean U |
            13    13      6.667      6.667          0.050      84.29     12.00

 Z Coordinates (m):
  -40.000 -33.333 -26.667 -20.000 -13.333  -6.667   0.000   6.667  13.333  20.000  26.667  33.333  40.000

 Y Coordinates (m):
  -40.000 -33.333 -26.667 -20.000 -13.333  -6.667   0.000   6.667  13.333  20.000  26.667  33.333  40.000

    0.000  13.171
   15.078  14.514  14.813  13.726  14.473  14.615  14.885  14.406  12.086  14.037  14.054  13.974  13.670
   14.857  14.805  13.490  13.015  13.474  13.335  13.904  14.066  12.591  13.371  13.725  14.183  14.819
   13.125  13.064  14.221  13.278  13.786  13.285  13.256  12.857  13.205  13.560  13.879  13.928  13.323
   13.034  13.044  12.554  13.065  13.433  14.487  13.145  13.873  12.648  12.356  12.634  13.545  12.976
   12.237  12.730  12.416  12.121  12.207  12.110  12.272  12.426  12.422  12.321  12.945  12.650  13.103
   11.414  12.311  12.160  12.061  12.121  12.084  12.295  12.921  13.061  12.246  11.993  14.154  12.865
   12.908  12.389  12.395  11.664  12.521  11.989  13.171  12.532  12.977  12.165  12.693  13.148  12.499
   11.245  12.133  12.860  11.304  12.285  12.211  12.983  12.110  13.145  11.612  12.597  12.257  11.282
   12.153  12.022  11.814  11.045  11.476  12.020  13.464  12.526  11.172  11.909  11.722  11.892  11.372
   10.734  10.958  10.811  11.341  11.695  11.655  11.910  11.590  11.440  11.652  10.416  10.942  11.854
   11.884  11.351  11.090  11.092  10.038   9.720   9.847  11.309  11.126  11.338  11.002  10.278   9.621
    9.663   9.417   9.214  10.074  10.271   9.202   9.231  10.397   9.813   9.763  10.778  10.326   9.684
    9.021   9.273   8.753   9.043  10.621  10.423   8.780   8.950   9.989   9.443   9.900   9.891   8.877

    0.050  13.027
   15.163  14.518  14.558  13.882  14.307  14.482  14.914  14.520  12.414  14.241  14.290  13.890  13.733
   14.908  14.815  13.636  12.853  13.197  13.275  14.250  14.046  12.746  13.586  13.714  13.907  14.708
   13.146  12.949  14.280  13.200  13.583  13.342  13.606  12.813  12.910  13.481  13.953  13.839  13.475
   12.959  13.429  12.600  12.969  13.240  14.371  13.074  13.389  12.570  11.904  12.610  13.658  13.038
   12.022  12.680  12.502  12.410  12.133  12.097  12.347  12.481  12.734  12.377  12.762  12.234  13.259
   11.294  12.039  11.906  11.839  12.113  11.915  12.187  12.771  13.129  12.165  12.026  14.228  13.161
   12.917  12.507  12.208  11.970  12.390  11.928  13.027  12.169  12.963  12.210  12.743  13.013  12.586
   11.271  12.126  12.723  11.127  11.985  12.000  13.012  12.012  12.867  11.563  12.642  12.442  11.433
   11.930  12.199  11.592  10.976  11.720  12.115  13.470  12.775  11.144  12.147  11.814  12.134  11.096
   10.476  10.695  11.094  11.673  11.693  11.999  11.988  11.462  11.973  12.238  10.688  10.667  11.778
   11.809  10.935  11.126  11.133   9.978   9.946  10.042  11.280  11.083  11.271  11.106  10.354   9.526
    9.871   9.665   9.429  10.193  10.298   9.055   9.202  10.391  10.318  10.389  10.919  10.388   9.947
    9.227   9.342   8.643   9.321  10.644  10.348   8.833   8.775  10.140   9.379   9.804   9.820   8.828

    0.100  13.052
   15.191  14.436  14.463  13.711  14.362  14.362  14.498  14.554  12.375  13.751  14.360  13.513  13.657
   15.232  15.087  13.833  13.230  13.375  13.108  13.999  13.965  13.061  13.907  13.405  13.663  14.409
   13.024  12.667  14.648  13.185  13.489  13.190  13.502  12.938  12.958  13.003  13.793  14.000  13.536
   12.733  13.077  12.382  12.956  13.670  13.946  13.214  13.333  12.625  12.487  12.744  13.903  13.193
   12.137  12.433  12.445  12.726  12.024  12.211  12.520  12.515  12.814  12.157  12.859  12.444  13.151
   11.293  11.887  11.948  11.984  12.316  12.233  12.466  13.367  12.964  12.030  11.847  14.752  13.330
   12.880  12.724  12.065  11.953  12.410  11.872  13.052  12.274  12.710  12.128  12.594  13.093  12.568
   11.182  11.807  12.296  11.104  12.008  11.917  12.671  11.872  12.876  11.410  12.635  12.687  11.420
   11.848  12.022  11.546  10.745  11.835  12.150  13.658  13.078  11.550  12.428  11.822  11.882  11.013
   10.567  10.856  11.135  11.469  11.659  11.943  12.046  11.526  11.929  12.121  10.945  10.451  11.649
   11.837  11.127  10.985  10.969   9.916  10.001  10.611  11.407  11.005  11.118  11.208  10.298   9.744
    9.828   9.511   9.898  10.221  10.382   8.995   9.003  10.550  10.340  10.482  10.657  10.259  10.018
    9.382   9.039   8.600   9.142  10.519  10.113   8.985   8.650  10.183   9.394   9.961  10.082   8.714

    0.150  13.007
   15.278  14.253  14.396  13.672  14.442  14.526  14.368  14.800  12.367  13.469  14.386  13.326  13.519
   15.150  15.116  13.937  13.203  13.025  13.143  13.992  14.123  12.897  13.760  13.828  13.438  14.200
   13.120  12.957  14.517  13.241  13.212  12.902  14.228  12.889  12.931  13.316  14.068  14.213  13.675
   12.872  12.937  12.213  13.034  13.823  14.360  13.334  13.408  12.444  12.210  13.047  13.900  13.164
   12.332  12.422  12.562  12.539  12.436  12.418  12.286  12.685  12.307  12.170  13.084  12.723  12.932
   11.393  11.677  12.034  11.767  12.048  12.282  12.259  13.282  12.866  12.188  12.125  14.662  13.508
   12.608  13.053  12.110  11.895  12.642  11.795  13.007  12.489  12.291  12.180  12.591  13.102  12.629
   11.325  11.656  12.074  11.110  11.851  12.075  12.148  11.987  12.538  11.321  12.391  12.701  11.510
   11.924  12.597  11.846  11.054  11.754  12.523  13.782  13.117  11.984  12.372  11.713  12.020  11.023
   10.650  11.025  11.236  11.631  11.562  11.975  11.943  11.646  11.780  12.269  10.895  10.370  11.570
   12.281  11.205  10.733  10.951  10.170   9.772  10.312  11.371  11.236  11.226  11.133  10.254   9.863
    9.974   9.871   9.792  10.244  10.433   9.082   8.855  10.586  10.430  10.347  11.057  10.359   9.761
    9.778   9.308   8.712   9.566  10.720   9.545   9.021   9.023  10.365   9.737   9.981   9.962   8.634

    0.200  13.085
   15.347  14.299  14.229  13.252  14.430  14.600  14.193  14.354  12.208  13.697  14.211  13.239  13.706
   14.818  15.204  13.897  13.187  13.167  13.043  14.049  14.301  12.806  13.601  13.940  13.562  14.283
   12.981  13.329  14.453  13.337  12.711  12.647  14.006  12.878  13.095  13.570  14.112  14.083  13.861
   13.180  13.074  12.378  13.001  13.773  14.465  13.013  12.831  12.435  12.152  12.891  13.545  13.172
   12.541  12.360  12.958  12.646  12.205  12.343  12.225  12.655  12.405  12.209  13.213  12.856  13.060
   11.593  11.431  12.031  11.719  11.892  12.299  12.382  12.733  12.673  12.527  12.257  14.562  13.276
   12.446  12.804  12.341  11.790  12.540  11.953  13.085  12.506  12.489  11.799  12.857  13.070  12.725
   11.516  11.512  11.825  11.034  12.119  11.800  11.807  11.869  12.859  11.187  12.311  12.503  11.395
   12.152  12.255  12.081  11.161  11.944  12.512  13.768  13.230  12.138  12.337  11.837  11.814  10.878
   10.537  10.991  11.145  11.914  11.584  11.472  11.786  11.769  11.830  12.703  11.199  10.320  11.422
   11.926  11.151  10.564  11.290  10.744   9.711  10.174  11.356  11.416  11.033  10.757  10.363   9.797
    9.941   9.898   9.673  10.165  10.776   9.271   8.874  10.638  10.214  10.225  11.364  10.182   9.473
    9.588   9.046   8.642   9.455  10.637   9.697   8.797   8.951  10.237   9.771  10.291   9.779   8.422

    0.250  12.966
   14.955  14.797  13.704  13.422  14.180  14.321  14.003  14.451  12.507  13.894  14.083  13.318  13.489
   14.702  14.925  14.156  13.160  13.074  13.232  13.939  14.095  12.946  13.721  14.186  13.748  13.930
   13.369  13.748  14.592  13.127  12.867  12.849  14.001  12.793  12.994  13.683  14.144  14.109  13.990
   13.187  13.285  12.071  13.372  13.572  14.310  12.838  12.676  12.306  12.361  13.135  13.389  13.220
   12.509  12.544  13.018  12.540  11.896  12.429  12.182  12.588  12.701  12.505  12.765  12.969  12.644
   11.986  11.303  11.974  11.855  11.952  12.492  12.495  12.814  12.757  12.761  12.187  14.477  13.048
   12.644  12.647  12.240  11.957  12.707  12.055  12.966  12.588  12.031  11.994  12.892  13.301  12.812
   11.621  11.398  11.976  11.108  12.505  11.862  12.229  11.829  12.723  11.233  12.009  12.782  11.154
   12.009  12.476  11.984  10.873  11.950  13.191  13.547  12.769  11.870  12.382  12.020  12.205  11.146
   10.184  11.253  10.957  12.228  11.289  11.360  11.864  12.160  11.969  12.494  11.006  10.309  11.377
   11.598  10.913  10.710  11.518  10.884   9.779   9.928  11.309  11.656  11.100  10.860  10.183   9.562
   10.129   9.872   9.558  10.338  10.705   9.081   8.473  10.705  10.204  10.004  11.378  10.385   9.638
    9.550   8.712   8.677   9.431  10.835  10.115   8.930   9.016  10.080   9.884  10.123   9.587   8.614

    0.300  13.253
   14.750  14.339  13.751  13.627  14.057  14.224  14.379  14.506  12.939  13.873  13.899  13.258  13.668
   14.603  14.952  14.069  13.291  12.866  13.476  13.948  14.149  13.104  13.462  14.577  13.656  14.013
   12.921  13.452  14.335  13.564  12.917  12.723  14.223  12.960  13.092  13.364  14.255  14.082  13.950
   13.195  13.304  12.080  13.722  13.503  14.259  13.125  12.880  12.310  12.200  13.228  13.715  13.477
   12.480  12.635  13.509  12.633  11.996  12.462  12.238  12.633  12.613  12.229  12.500  12.939  12.571
   11.783  11.424  12.091  11.937  11.912  11.989  12.563  12.766  12.792  12.723  12.355  14.712  12.811
   12.589  12.287  11.963  12.004  12.993  11.977  13.253  13.067  11.988  11.860  13.145  13.425  12.208
   12.004  11.426  11.967  10.968  12.307  12.006  12.348  11.646  12.812  11.728  12.520  12.847  11.400
   11.946  12.879  12.254  10.920  12.080  13.231  13.598  12.953  11.587  12.475  11.821  12.352  11.274
   10.304  11.169  10.915  12.350  11.215  11.912  11.780  12.117  11.936  12.358  10.861  10.479  11.359
   11.775  11.103  10.881  11.541  10.831   9.995   9.798  11.258  11.572  11.247  10.785  10.377   9.839
   10.210   9.845   9.545  10.188  10.659   8.787   8.457  10.732  10.370   9.786  11.218  10.225   9.743
    9.588   8.717   8.811   9.321  10.567   9.976   8.910   9.107  10.429   9.837  10.176   9.065   9.018

    0.350  12.890
   14.930  14.102  13.591  13.194  14.158  14.037  14.059  14.324  12.962  13.849  13.941  13.072  13.628
   14.813  14.823  14.272  13.266  12.648  13.091  14.025  14.158  12.969  13.141  14.759  13.570  13.936
   12.824  13.530  14.160  13.417  13.010  12.581  13.940  13.207  13.057  12.919  14.087  13.853  14.061
   13.143  13.415  12.601  13.434  13.567  14.193  13.000  12.803  12.341  12.491  13.509  13.487  13.767
   12.370  12.671  13.390  12.453  11.895  12.097  12.113  12.377  12.686  12.225  12.672  13.413  12.845
   11.925  11.748  12.054  11.639  11.978  11.988  12.592  13.110  12.673  12.821  12.426  14.345  12.835
   12.532  12.568  12.061  12.235  12.802  11.915  12.890  12.777  11.896  11.420  13.023  13.173  11.806
   12.020  11.179  12.114  11.067  12.006  11.932  12.209  11.818  12.885  11.876  12.165  13.217  11.343
   12.172  12.440  12.062  11.166  11.974  12.866  13.718  12.884  11.490  12.330  12.014  12.292  11.174
   10.594  10.995  10.737  12.042  10.958  12.014  12.057  12.168  12.007  12.490  10.971  10.239  11.463
   11.995  11.101  10.893  11.108  10.594  10.102  10.069  11.490  11.920  11.488  10.725  10.274   9.707
   10.122   9.848   9.265  10.214  10.757   8.752   8.965  10.794  10.639  10.184  11.264  10.122   9.522
    9.572   8.877   8.511   9.176  10.579   9.930   9.118   9.308  10.505  10.070  10.469   9.235   9.437

    0.400  12.953
   14.620  14.036  13.754  12.979  13.955  13.781  14.325  14.329  12.746  14.031  14.028  12.857  13.547
   14.679  14.729  14.321  13.342  12.652  13.154  13.800  14.536  12.611  13.326  14.892  13.486  14.176
   12.599  13.581  14.411  13.056  12.746  12.851  13.503  13.074  12.979  12.833  13.821  14.009  13.601
   12.831  13.267  12.607  13.490  13.342  14.349  12.840  12.929  12.180  12.510  13.288  13.243  13.992
   12.343  12.521  13.142  12.318  11.884  11.744  12.116  12.059  12.937  12.656  12.944  13.408  13.040
   11.896  11.519  11.940  11.507  11.912  12.026  12.463  13.354  12.698  12.887  12.855  14.191  12.918
   12.302  12.591  12.052  12.035  12.564  11.768  12.953  12.642  11.969  11.527  12.436  12.859  11.996
   12.076  11.322  12.152  10.956  12.130  11.952  12.066  12.230  13.264  11.807  12.168  12.976  11.443
   12.021  12.467  12.073  11.166  11.663  12.443  13.348  13.008  11.767  11.877  12.035  12.267  11.072
   10.893  10.940  10.833  12.305  11.365  12.267  11.895  12.044  11.805  12.262  11.348  10.016  11.353
   11.855  10.874  10.980  11.042  10.760  10.009  10.213  11.238  11.779  11.459  10.644  10.499   9.521
   10.100   9.781   8.906  10.336  10.919   8.538   9.204  11.174  10.803   9.823  11.605   9.923   9.641
    9.349   8.965   8.486   9.156  10.671   9.928   9.301   9.267  10.380  10.275  10.591   9.697   9.362

    0.450  12.751
   14.451  13.866  13.840  13.305  13.723  13.837  14.683  13.927  12.581  14.049  14.032  12.887  13.560
   14.884  14.598  14.346  13.298  12.443  13.709  13.567  14.698  13.020  13.368  14.659  13.495  14.301
   12.462  13.589  14.543  13.276  12.474  13.047  12.989  12.782  13.099  12.992  14.103  13.998  13.523
   13.190  13.226  12.619  13.405  13.085  14.415  12.740  12.837  12.471  12.561  13.085  13.591  13.414
   12.460  12.154  12.850  12.014  11.794  11.862  12.674  12.055  12.765  12.598  12.771  12.876  13.045
   12.116  11.333  12.294  11.520  11.878  12.109  12.700  13.294  12.631  13.028  12.854  14.225  12.844
   12.117  12.490  12.299  11.818  13.088  11.721  12.751  12.873  11.843  11.610  12.318  12.892  12.290
   11.793  11.454  12.241  10.935  12.255  12.145  11.545  12.312  13.304  11.991  12.525  12.794  11.701
   11.765  12.762  12.296  11.223  11.434  12.496  13.678  13.170  11.796  12.006  11.866  12.490  10.640
   10.814  10.634  11.043  12.085  11.406  12.301  11.692  11.723  11.443  11.852  11.297  10.057  11.027
   11.402  10.525  11.027  11.295  10.762   9.704  10.113  11.083  11.603  10.996  10.555  10.889   9.734
   10.165  10.032   9.213  10.570  10.984   8.656   9.214  11.282  10.835  10.000  11.509   9.633   9.563
    9.154   9.036   8.397   9.664  10.859   9.816   9.449   9.353  10.117  10.266  10.635   9.887   9.103

    0.500  12.838
   14.903  14.128  13.540  13.203  13.740  14.060  14.342  13.863  12.387  13.792  14.192  13.283  13.975
   15.281  14.358  14.244  13.525  12.252  13.771  13.351  14.352  12.833  13.296  14.591  13.527  14.349
   12.861  13.208  14.508  13.070  12.485  13.284  13.400  12.646  13.086  12.790  14.073  14.210  13.825
   12.976  13.244  12.503  13.473  12.830  14.131  12.612  12.806  12.633  12.885  13.328  13.533  13.161
   12.206  12.152  12.437  11.883  11.811  11.760  12.517  11.993  12.781  12.332  12.685  12.809  12.824
   11.776  11.117  12.531  11.458  12.267  12.155  12.648  13.383  12.687  12.751  12.781  14.313  12.550
   12.246  12.764  12.441  11.721  12.775  11.650  12.838  12.961  11.688  11.463  12.350  12.966  12.142
   11.846  11.518  12.031  11.009  11.809  12.169  11.904  12.175  13.631  12.091  12.549  12.679  11.840
   11.762  12.027  12.318  11.188  11.174  12.518  13.599  13.009  11.478  11.917  11.796  12.436  10.640
   10.962  10.961  11.131  12.186  11.875  12.185  11.603  11.576  11.539  11.850  11.347  10.017  11.200
   11.249  10.575  10.475  11.258  10.498   9.361   9.835  11.292  11.928  10.958  10.574  10.942   9.763
    9.885  10.244   9.066  10.556  11.335   8.582   9.207  11.110  10.856  10.362  11.400   9.574   9.668
    9.294   9.054   8.513   9.631  11.111   9.699   9.607   9.497  10.185   9.896  10.399   9.759   8.974

    0.550  12.766
   14.891  14.090  13.513  13.404  13.603  13.929  14.219  14.124  12.227  13.821  14.121  12.954  13.866
   15.319  14.511  14.314  13.295  12.445  13.437  13.580  14.009  12.502  13.424  14.157  13.788  14.584
   13.167  12.890  14.372  12.904  12.574  12.849  13.543  12.353  12.890  12.960  14.184  14.431  13.451
   13.215  13.293  12.294  13.149  12.506  13.832  12.658  12.876  12.786  12.892  13.482  13.278  13.182
   12.572  12.015  12.453  11.823  12.256  11.618  12.615  11.990  12.764  12.493  12.774  13.089  12.539
   11.819  11.401  12.492  11.530  12.173  12.287  12.577  13.406  13.020  12.546  12.942  14.745  12.363
   12.315  12.863  12.824  11.823  12.714  11.824  12.766  12.979  12.140  11.668  12.796  13.094  11.847
   12.054  11.666  11.957  10.752  12.105  11.905  11.745  12.296  13.676  12.148  12.583  12.757  11.865
   11.780  11.751  11.885  10.885  11.044  12.517  13.366  13.100  11.190  12.411  11.896  12.309  10.802
   11.062  11.186  11.152  11.979  11.730  12.121  11.613  11.873  11.843  11.681  11.456   9.825  11.064
   11.222  10.544  10.425  11.232  10.667   9.817   9.930  10.903  11.436  10.943  10.369  10.938  10.164
    9.448   9.999   8.915  10.516  11.211   8.617   9.198  10.699  10.936  10.604  11.509   9.449   9.832
    9.565   9.065   8.617   9.762  11.003  10.157   9.259   9.109  10.409   9.594  10.506  10.016   9.209

    0.600  13.103
   14.613  13.948  13.993  13.208  13.595  13.950  13.939  14.091  12.656  13.803  14.058  12.620  13.929
   15.047  14.636  14.309  13.005  12.436  13.445  13.622  14.096  12.304  13.445  14.227  13.723  14.299
   13.136  13.011  14.189  12.908  12.630  12.787  13.411  12.345  12.698  13.272  14.513  14.239  13.477
   13.186  13.382  11.787  13.033  12.618  13.795  12.101  12.920  12.794  13.019  13.648  13.281  13.013
   12.567  12.014  12.503  12.104  11.929  11.748  12.387  12.098  12.704  12.527  13.111  13.243  12.478
   11.877  11.341  12.350  11.590  12.117  12.126  12.794  13.717  12.959  12.368  13.105  14.225  12.246
   12.457  12.642  12.739  11.838  12.505  11.933  13.103  12.586  12.171  11.574  12.577  13.664  12.130
   12.172  11.682  11.564  10.908  12.061  11.858  11.750  12.078  13.298  12.278  12.668  12.876  11.760
   11.835  11.603  11.713  10.936  11.024  12.701  12.881  13.224  11.079  12.557  11.999  12.002  10.846
   10.943  11.083  11.094  11.900  11.776  11.974  11.769  11.926  12.021  11.780  11.290   9.961  11.184
   11.129  10.393  10.492  11.414  10.838   9.816  10.035  10.991  11.239  10.953  10.340  11.339   9.916
    9.455  10.543   8.809  10.275  11.218   8.716   9.254  10.981  10.957  10.367  11.128   9.759   9.447
    9.420   9.166   8.686   9.741  10.595  10.133   9.357   9.221  10.605   9.905  10.495   9.629   9.177

    0.650  13.285
   14.850  13.674  13.851  13.129  13.738  13.977  13.519  13.878  12.742  14.008  14.285  13.164  14.099
   14.665  14.428  13.992  13.144  12.591  13.427  13.618  14.317  12.415  13.368  14.279  13.635  14.079
   12.877  13.238  14.116  12.807  12.530  12.932  13.190  12.504  12.506  13.087  14.499  14.204  13.208
   13.026  13.381  11.572  13.174  12.951  13.701  12.161  13.081  12.566  13.226  13.642  13.586  13.288
   12.231  12.131  12.493  12.143  11.914  11.885  12.534  11.868  12.807  12.573  12.777  12.941  12.454
   12.052  11.348  12.736  11.256  11.762  11.963  12.804  13.624  12.665  12.257  13.327  13.847  11.937
   12.608  12.604  12.750  11.512  12.449  12.071  13.285  12.417  12.062  11.718  12.583  13.603  12.277
   11.788  11.644  11.662  10.988  12.267  11.781  11.770  12.307  13.493  12.386  12.704  12.698  11.409
   11.809  11.702  11.768  11.350  11.182  12.710  12.627  12.916  11.099  12.402  12.150  11.831  10.771
   11.316  10.774  11.336  11.785  11.729  12.146  11.825  11.960  11.967  11.529  11.373  10.152  10.870
   11.179  10.618  10.170  11.422  10.559  10.201   9.979  10.929  11.471  11.067  10.144  11.217  10.061
    9.714  10.230   9.014  10.152  11.012   8.606   9.593  11.401  10.858  10.793  11.056  10.468   9.519
    9.293   9.300   8.674   9.406  10.737   9.980   9.256   9.431  10.405  10.077  10.684   8.983   9.463

    0.700  13.079
   15.066  13.550  13.928  13.399  13.737  13.793  13.508  14.051  12.496  13.974  14.408  12.866  14.343
   14.338  14.204  14.013  12.895  12.409  13.518  13.578  14.136  12.488  13.238  14.284  13.899  14.039
   12.930  13.501  13.999  13.019  12.566  12.383  12.687  13.097  12.702  13.216  14.726  14.408  13.252
   12.835  12.969  11.471  13.348  12.847  13.766  12.407  13.162  12.625  13.041  13.822  13.629  13.657
   12.323  11.981  12.742  11.996  11.931  11.596  12.902  12.284  12.713  12.723  12.763  12.813  12.667
   12.085  11.259  12.801  10.886  11.904  12.291  12.911  13.731  12.719  12.255  13.527  13.889  12.352
   12.285  12.539  12.907  11.275  12.472  11.831  13.079  12.774  11.819  12.049  12.496  13.736  12.368
   11.438  11.656  11.667  10.901  12.519  11.790  11.717  12.326  13.738  11.758  12.416  12.594  10.991
   11.856  11.431  11.646  11.445  11.288  12.798  12.226  12.956  11.228  12.226  12.476  11.435  10.817
   11.536  10.782  11.099  11.195  11.476  12.305  11.613  11.987  12.104  11.641  11.483  10.261  10.708
   11.124  10.720  10.327  11.387  10.545  10.610  10.156  10.929  11.957  11.070  10.147  10.986  10.066
    9.896  10.455   8.707  10.252  11.255   8.728   9.495  11.245  10.893  10.779  11.002  10.323   9.139
    9.238   9.444   8.762   9.561  10.439  10.251   8.859   9.366  10.547  10.690  10.726   8.795   9.230

    0.750  12.972
   15.239  13.551  13.760  13.114  13.847  13.754  13.354  14.091  12.272  13.783  14.538  12.863  13.622
   14.598  14.493  14.079  13.023  12.145  13.628  13.476  14.238  12.251  13.432  14.076  13.805  14.108
   13.114  13.723  13.871  13.246  12.450  12.253  13.138  13.344  12.941  13.368  14.404  14.369  13.449
   13.074  13.258  11.895  13.286  12.720  13.751  12.476  13.203  12.169  12.953  13.878  13.709  13.833
   12.218  12.042  12.601  12.294  11.917  11.528  12.478  12.444  13.020  12.499  13.351  12.932  12.877
   11.756  11.227  12.725  11.019  12.245  12.283  12.887  13.652  12.676  12.629  13.604  14.227  12.614
   12.305  12.417  12.550  11.211  12.556  11.468  12.972  12.991  12.217  12.242  12.289  13.752  12.128
   11.979  11.935  11.561  10.268  12.575  12.028  11.866  12.310  13.466  11.923  12.778  12.699  10.872
   11.416  11.700  11.539  11.538  11.370  12.437  12.482  13.030  11.272  12.278  12.398  11.278  11.150
   11.421  10.578  11.462  11.299  11.610  12.154  11.652  12.137  11.949  11.388  11.512  10.278  10.521
   11.203  10.587  10.489  11.408  10.804  10.445  10.434  11.140  11.907  10.991  10.407  10.760  10.232
   10.163  10.592   8.764  10.552  11.507   9.055   9.317  11.245  11.033  10.751  11.056  10.378   9.124
    9.463   9.322   8.820   9.570  10.581   9.741   8.468   9.677  10.665  10.986  10.418   8.520   9.299

    0.800  13.050
   14.828  13.360  13.421  12.823  13.293  13.521  13.227  13.785  12.675  14.004  14.659  12.740  13.409
   14.919  14.583  14.004  12.826  12.520  13.361  13.594  14.621  12.233  13.719  14.071  13.710  13.906
   12.779  13.613  13.598  13.210  12.592  12.403  13.343  13.567  12.843  13.562  14.277  14.297  13.799
   13.026  13.396  12.049  13.591  12.802  13.695  12.608  12.935  12.399  12.894  13.366  14.031  14.018
   12.087  12.171  12.687  12.219  11.939  11.973  12.070  12.302  12.972  12.831  13.452  12.525  13.145
   12.054  11.805  12.635  10.812  12.204  11.997  12.983  13.568  12.451  12.177  13.402  14.281  12.437
   12.368  12.158  12.452  11.614  12.546  11.996  13.050  13.148  12.347  12.217  12.456  13.581  12.376
   12.088  12.087  11.628  10.840  12.221  12.253  11.823  12.178  13.432  11.690  12.521  12.903  10.880
   11.597  11.907  11.335  11.153  11.447  12.200  12.654  13.006  11.389  12.383  12.433  10.945  11.273
   11.397  10.535  11.409  11.131  11.273  12.207  11.426  11.989  11.803  11.248  11.337  10.162  10.604
   11.233  10.644  10.724  11.683  10.871  10.458  10.488  10.904  12.062  11.135  10.528  10.842  10.179
   10.050  10.348   8.898  10.443  11.350   9.032   9.134  11.178  11.181  10.704  10.977  10.588   9.022
    9.249   9.322   8.862   9.533  11.039   9.837   8.478   9.798  10.452  11.061  10.716   8.624   9.631

    0.850  12.752
   14.838  13.483  13.177  13.064  13.272  13.860  13.232  13.532  13.080  13.707  14.520  12.871  13.229
   14.778  14.348  13.856  12.488  12.744  13.355  13.761  14.656  12.242  13.854  13.756  13.635  13.946
   13.041  13.240  13.532  13.273  12.338  12.793  13.232  13.504  12.711  13.325  14.164  14.265  13.609
   13.017  13.462  11.794  13.880  13.056  13.705  12.967  12.835  12.724  12.655  13.582  13.958  14.134
   12.334  12.279  12.760  12.208  11.943  12.053  12.076  12.317  13.135  12.654  13.220  12.368  13.205
   12.318  12.023  12.882  10.799  11.975  12.048  12.798  13.520  12.628  12.524  13.889  14.120  12.392
   12.139  12.262  12.696  11.342  12.229  11.984  12.752  13.277  12.712  12.179  12.621  13.527  12.303
   11.981  12.042  11.928  11.023  12.099  12.229  11.876  12.235  13.305  11.545  12.453  12.880  10.896
   11.940  11.740  11.309  11.082  11.508  11.959  12.537  12.990  11.525  12.457  12.121  11.077  10.902
   11.446  10.513  11.297  11.074  11.105  12.276  11.590  11.959  11.768  11.280  11.328  10.227  10.761
   11.094  10.633  10.503  11.980  10.856  10.406  10.294  10.951  11.897  11.370  10.950  10.589  10.124
   10.203   9.946   8.959  10.541  11.502   8.958   9.312  11.178  11.344  10.608  10.559  10.847   8.830
    9.356   9.295   9.012   9.392  10.763   9.791   8.377   9.658  10.687  10.974  10.529   8.976   9.601

    0.900  12.552
   14.884  13.891  13.493  13.032  13.305  13.927  13.069  13.376  12.875  13.673  14.800  12.887  13.439
   14.553  14.035  13.632  12.427  12.957  13.152  13.679  14.746  12.123  13.656  13.909  13.655  13.980
   12.579  13.210  13.709  13.513  12.129  12.778  13.387  13.686  12.697  13.014  14.385  14.310  13.413
   13.046  13.644  11.826  13.904  13.089  13.678  12.725  12.815  12.644  12.697  13.786  13.726  14.091
   12.278  12.197  12.195  12.398  11.751  12.104  11.973  12.170  13.006  12.724  13.185  12.754  13.193
   12.367  11.947  12.814  10.866  12.166  12.113  12.655  13.198  12.327  12.509  13.568  14.112  12.099
   12.270  12.184  12.892  11.411  12.053  12.178  12.552  13.638  12.861  11.963  12.501  13.054  12.258
   11.857  12.165  11.826  10.702  11.938  12.213  11.980  12.289  13.381  11.728  12.764  12.657  10.649
   12.045  11.256  11.439  11.055  11.629  12.306  12.564  12.900  11.573  12.006  12.178  11.425  10.507
   11.223  10.472  11.078  10.962  11.380  11.921  11.719  11.725  11.170  11.263  11.463  10.034  10.891
   11.470  10.473  10.417  11.889  10.965   9.962  10.676  10.668  11.544  11.266  11.370  10.675   9.952
   10.234  10.126   8.855  10.342  10.657   8.752   9.743  11.250  11.543  10.833  10.367  10.329   9.100
    9.666   9.386   9.245   9.448  10.671   9.552   8.059   9.472  10.882  10.929  10.497   9.111   9.231

    0.950  12.358
   14.876  13.965  13.658  13.032  13.122  13.805  12.683  13.362  12.801  13.292  14.338  13.065  13.930
   14.876  14.001  13.726  12.730  12.960  13.401  13.467  14.963  12.056  13.460  14.292  13.371  14.063
   12.221  13.274  13.705  13.557  11.958  12.459  13.077  13.823  12.854  13.219  14.343  14.341  13.295
   12.619  13.865  11.794  14.036  13.329  13.724  12.401  12.781  12.864  12.508  13.965  13.822  14.331
   12.342  12.158  11.992  12.091  11.648  12.159  12.115  12.176  13.220  12.899  13.133  12.774  13.024
   11.940  11.776  13.217  11.068  12.175  12.178  13.157  12.958  12.358  12.431  13.445  13.744  12.303
   12.077  12.284  12.603  11.399  12.031  12.216  12.358  13.346  12.674  11.919  12.538  13.335  11.839
   11.934  11.921  11.716  10.923  11.929  12.558  12.483  12.218  13.757  11.945  12.810  12.690  10.688
   11.630  11.434  11.250  11.074  11.513  12.263  12.379  13.006  11.580  11.943  12.507  11.419  10.661
   10.793  10.462  10.755  10.964  11.572  11.624  11.820  11.890  11.199  11.717  11.472   9.986  10.956
   11.578  10.637  10.449  11.555  10.907   9.635  10.919  10.975  11.596  11.256  11.179  10.779   9.860
    9.848  10.081   8.831  10.242  10.693   9.043  10.066  11.306  11.235  11.076  10.877  10.156   9.060
    9.687   9.517   9.136   9.607  10.778   9.798   8.500   9.598  11.127  11.010  10.186   8.974   9.199

    1.000  12.277
   14.842  13.940  13.638  12.692  13.214  13.942  13.097  13.247  12.956  13.452  13.923  12.986  13.907
   14.592  14.130  13.932  12.860  12.993  13.470  13.596  15.144  12.503  13.307  14.213  13.385  14.103
   12.454  12.894  13.877  13.499  11.749  12.160  12.702  13.744  12.554  13.143  14.713  14.160  13.888
   12.771  13.850  11.758  13.751  13.130  13.780  12.296  12.310  12.873  12.326  13.929  13.677  14.215
   12.289  12.378  12.122  12.346  11.710  12.216  12.250  12.131  13.200  13.084  13.096  12.593  13.105
   12.428  12.010  13.016  11.284  11.938  12.545  13.116  12.739  12.601  12.776  13.751  14.017  12.531
   11.980  12.217  12.309  11.684  12.097  12.026  12.277  13.410  12.414  11.999  12.925  13.369  11.472
   12.038  12.018  11.899  11.021  12.385  12.699  12.359  12.337  13.640  11.563  12.580  12.577  10.944
   11.964  11.841  11.484  11.382  11.287  12.434  12.458  12.859  11.743  11.937  12.836  11.500  10.884
   10.690  10.365  10.872  10.738  11.267  12.082  11.926  11.676  11.211  12.226  11.483  10.224  11.108
   11.286  10.509  10.434  11.527  11.102   9.616  10.518  10.877  11.930  11.546  11.042  10.828   9.926
    9.701  10.248   9.020  10.141  10.784   8.849   9.803  11.250  11.406  11.425  10.783  10.164   9.220
    9.805   9.685   9.034   9.879  10.945   9.625   8.544   9.878  10.593  10.917  10.159   8.854   9.251

    1.050  12.125
   14.525  13.621  13.554  13.055  13.083  14.190  13.360  12.944  13.103  13.873  13.910  12.765  13.587