
This full-field turbulence file was generated by TurbSim (v1.06.00, 21-Sep-2012) on 28-Mar-2017 at 17:56:19.

 | w-comp |  Y  x  Z  | Grid Resolution (Y x Z) | Time-step | Hub Elev | Mean U |
            13    13     14.600     14.600          0.050      87.70      8.57

 Z Coordinates (m):
  -87.600 -73.000 -58.400 -43.800 -29.200 -14.600   0.000  14.600  29.200  43.800  58.400  73.000  87.600

 Y Coordinates (m):
  -87.600 -73.000 -58.400 -43.800 -29.200 -14.600   0.000  14.600  29.200  43.800  58.400  73.000  87.600

    0.000   0.449
   -0.031   0.190   0.627  -0.151   0.062   0.068  -0.142   0.053  -0.235   0.082   0.062   0.257   0.155
    0.354   0.569  -0.383   0.207   0.525  -0.005  -0.033  -0.097   0.068  -0.376   0.434  -0.222  -0.190
   -0.153   0.197  -0.253   0.100   0.218   0.068  -0.354   0.854  -0.097  -0.069   0.230  -0.076   0.207
   -0.054   0.070   0.361  -0.283   0.528  -0.090  -0.087   0.196  -0.400  -0.188   0.214  -0.047   0.729
   -0.239   0.230  -0.054   0.333  -0.013  -0.049  -0.285   0.189   0.355  -0.035  -0.412  -0.454  -0.052
   -0.169   0.097  -0.452   0.223   0.023   0.169   0.298  -0.583   0.172  -0.278   0.160   0.154  -0.331
   -0.097  -0.126  -0.067   0.195   0.685   0.275   0.449  -0.746   0.110   0.129   0.117  -0.319  -0.496
   -0.343  -0.204   0.237  -0.036   0.273   0.069   0.194  -0.100   0.439   0.531  -0.373   0.302  -0.251
   -0.269  -0.054   0.246   0.065  -0.272  -0.147   0.751  -0.002  -0.169   0.236   0.240   0.335   0.185
    0.432  -0.122  -0.155   0.110  -0.299  -0.176   0.073  -0.096  -0.130   0.003  -0.306   0.657   0.286
   -0.006   0.412   0.236  -0.503   0.134   0.141   0.573   0.329   0.292   0.122  -0.190   0.561   0.323
   -0.100   0.228  -0.397   0.161   0.085  -0.077   0.303  -0.392   0.417  -0.412  -0.043  -0.071  -0.041
   -0.286  -0.026  -0.186  -0.031   0.369   0.074   0.915  -0.270  -0.046   0.269  -0.723  -0.152   0.061

    0.050   0.257
   -0.221   0.326   0.603  -0.361   0.165  -0.005  -0.291  -0.179  -0.063   0.239  -0.081   0.149   0.331
    0.455   0.329  -0.400   0.247   0.579   0.063  -0.067   0.061   0.099  -0.457   0.166  -0.276  -0.236
    0.030   0.195  -0.134   0.175   0.106   0.083  -0.503   0.781  -0.118  -0.064   0.178  -0.012   0.178
   -0.169   0.117   0.348  -0.356   0.270  -0.290   0.142   0.133  -0.472  -0.293   0.104  -0.123   0.560
   -0.286   0.356   0.062   0.413   0.050   0.039  -0.303   0.129   0.399  -0.140  -0.262  -0.457  -0.103
   -0.128   0.220  -0.376   0.219   0.205   0.094   0.294  -0.444   0.207  -0.285   0.233   0.070  -0.453
   -0.076  -0.095  -0.151   0.195   0.768   0.267   0.257  -0.548  -0.067   0.259   0.117  -0.142  -0.458
   -0.325  -0.254   0.209   0.006   0.312   0.011   0.187  -0.098   0.413   0.626  -0.191   0.266  -0.194
   -0.098  -0.089   0.133   0.211  -0.195  -0.266   0.717  -0.205  -0.124   0.282   0.162   0.332   0.288
    0.335  -0.128  -0.051   0.172  -0.242  -0.219  -0.130  -0.015  -0.075   0.231  -0.265   0.636   0.190
    0.094   0.476   0.286  -0.440   0.233   0.232   0.523   0.281   0.395   0.102  -0.299   0.568   0.440
   -0.140   0.211  -0.247   0.185   0.128  -0.238   0.213  -0.307   0.503  -0.445   0.109  -0.063  -0.219
   -0.387  -0.010  -0.132  -0.228   0.179   0.151   0.902  -0.270   0.034   0.223  -0.675   0.003   0.177

    0.100   0.316
   -0.191   0.297   0.363  -0.410   0.015  -0.055  -0.354  -0.060  -0.086   0.150  -0.178   0.157   0.307
    0.292   0.379  -0.402   0.289   0.511  -0.036  -0.132  -0.201   0.126  -0.451   0.321  -0.496  -0.395
    0.037   0.038  -0.083   0.217   0.038   0.245  -0.617   0.827  -0.103  -0.002   0.277  -0.106   0.148
   -0.161   0.269   0.116  -0.387   0.143  -0.277   0.009   0.116  -0.655  -0.041  -0.008  -0.279   0.763
   -0.167   0.209   0.040   0.277  -0.229   0.052  -0.432   0.088   0.397  -0.068  -0.154  -0.352  -0.115
   -0.347   0.110  -0.293   0.359   0.312  -0.048   0.461  -0.275   0.367  -0.313   0.189   0.134  -0.488
   -0.145  -0.194  -0.101   0.130   0.813   0.351   0.316  -0.337  -0.056   0.297   0.115  -0.254  -0.687
   -0.222  -0.257   0.027   0.074   0.270  -0.214   0.196  -0.232   0.378   0.490  -0.153   0.404  -0.064
   -0.114  -0.273   0.112   0.434  -0.352  -0.396   0.875  -0.201  -0.278   0.108   0.085   0.399   0.200
    0.427   0.102  -0.083   0.191  -0.299  -0.240   0.098  -0.099   0.174   0.170  -0.307   0.492   0.013
    0.009   0.552   0.195  -0.596   0.310   0.388   0.647   0.225   0.359   0.117  -0.243   0.655   0.613
   -0.057   0.224  -0.066   0.298   0.260  -0.025   0.206  -0.288   0.562  -0.527   0.147  -0.084  -0.041
   -0.278   0.223  -0.191  -0.330   0.104   0.167   0.786  -0.295  -0.053   0.307  -0.564  -0.043   0.078

    0.150   0.380
   -0.178   0.350   0.416  -0.353   0.008   0.062  -0.404  -0.126  -0.124   0.128  -0.108   0.340   0.185
    0.337   0.393  -0.474   0.181   0.380   0.007  -0.190  -0.317   0.154  -0.307   0.269  -0.577  -0.325
    0.013   0.088   0.019   0.113   0.096   0.174  -0.563   0.840  -0.160   0.183   0.216  -0.032   0.430
   -0.271   0.150  -0.088  -0.212   0.241  -0.325   0.110   0.108  -0.562   0.129  -0.012  -0.404   0.782
   -0.186   0.357  -0.006   0.389  -0.087   0.157  -0.190   0.248   0.175  -0.098  -0.189  -0.244   0.061
   -0.192   0.247  -0.288   0.368   0.160   0.003   0.385  -0.170   0.281  -0.308   0.072  -0.043  -0.375
   -0.099  -0.133  -0.145   0.153   0.859   0.292   0.380  -0.200  -0.183   0.081   0.194  -0.317  -0.502
   -0.073  -0.247   0.003   0.095   0.357  -0.029   0.200  -0.216   0.506   0.281  -0.224   0.404  -0.083
   -0.105  -0.223   0.088   0.418  -0.326  -0.443   0.715  -0.178  -0.307   0.107   0.039   0.253   0.432
    0.486   0.154  -0.055   0.112  -0.433  -0.202   0.180  -0.049   0.216   0.123  -0.465   0.376   0.121
    0.016   0.618   0.107  -0.585   0.639   0.400   0.633   0.123   0.173   0.050  -0.278   0.617   0.493
   -0.175   0.219  -0.202   0.289   0.258  -0.045   0.185  -0.453   0.534  -0.458   0.127  -0.089   0.023
   -0.021   0.277  -0.290  -0.407   0.181   0.255   0.882  -0.205  -0.071   0.340  -0.625  -0.078  -0.146

    0.200   0.240
    0.068   0.279   0.357  -0.335   0.149   0.028  -0.252   0.046  -0.198   0.114  -0.110   0.386   0.229
    0.349   0.412  -0.608   0.104   0.425  -0.003  -0.012  -0.165   0.336  -0.366   0.363  -0.497  -0.362
   -0.025   0.250  -0.116   0.044  -0.021   0.281  -0.626   0.643  -0.439   0.155   0.120   0.067   0.422
   -0.115   0.073  -0.081  -0.324   0.130  -0.399   0.123   0.025  -0.451   0.100  -0.110  -0.425   0.532
   -0.065   0.354  -0.059   0.175   0.058   0.266  -0.134   0.054   0.230  -0.153  -0.187  -0.199   0.138
   -0.246   0.108  -0.349   0.433  -0.103   0.121   0.467  -0.347   0.120  -0.086  -0.031  -0.199  -0.440
   -0.100  -0.113  -0.120   0.207   0.587   0.330   0.240  -0.182  -0.034   0.052   0.268  -0.362  -0.551
   -0.194  -0.320   0.017   0.159   0.371  -0.092   0.182  -0.137   0.550   0.496  -0.415   0.243  -0.116
   -0.078  -0.270   0.277   0.377  -0.414  -0.405   0.758  -0.036  -0.527  -0.044   0.002   0.351   0.401
    0.398   0.040   0.017   0.176  -0.352  -0.165   0.081  -0.046   0.221   0.206  -0.451   0.606   0.188
    0.001   0.558   0.045  -0.815   0.533   0.356   0.526   0.221   0.228   0.129  -0.130   0.534   0.558
   -0.307   0.034  -0.179   0.260   0.210   0.041   0.002  -0.489   0.523  -0.530  -0.020  -0.024   0.134
   -0.161   0.344  -0.364  -0.318   0.332   0.409   0.943  -0.226  -0.211   0.325  -0.491  -0.266  -0.054

    0.250   0.254
    0.056   0.277   0.314  -0.361   0.124  -0.011  -0.265  -0.092  -0.255   0.238  -0.195   0.300   0.005
    0.364   0.342  -0.529  -0.060   0.461  -0.159  -0.195  -0.160   0.422  -0.374   0.246  -0.548  -0.311
    0.027   0.065   0.078   0.008   0.045   0.224  -0.601   0.634  -0.241   0.252  -0.058   0.163   0.352
   -0.079  -0.057   0.074  -0.325   0.093  -0.331   0.002   0.216  -0.482  -0.005  -0.005  -0.445   0.602
   -0.154   0.231  -0.156   0.109   0.013   0.292  -0.141  -0.019   0.253   0.105  -0.026  -0.293   0.110
   -0.217   0.145  -0.370   0.543  -0.213   0.110   0.395  -0.437   0.366  -0.099  -0.218  -0.124  -0.651
   -0.136   0.039  -0.050   0.029   0.467   0.375   0.254  -0.248   0.040  -0.035   0.206  -0.220  -0.399
   -0.015  -0.389   0.008  -0.085   0.483  -0.154   0.154  -0.080   0.620   0.524  -0.499   0.254  -0.082
   -0.146  -0.047   0.435   0.328  -0.484  -0.218   0.667  -0.019  -0.661  -0.154   0.095   0.253   0.538
    0.401  -0.184   0.007   0.186  -0.222  -0.254   0.151   0.018   0.215   0.049  -0.460   0.471   0.224
    0.157   0.530   0.043  -0.825   0.318   0.371   0.727   0.147   0.055   0.037  -0.198   0.447   0.475
   -0.193   0.120   0.023   0.334   0.115   0.030   0.134  -0.505   0.539  -0.400   0.031  -0.066  -0.024
   -0.240   0.206  -0.317  -0.147   0.198   0.476   0.798  -0.199  -0.254   0.063  -0.658  -0.278  -0.067

    0.300   0.224
    0.025   0.108   0.320  -0.255   0.201   0.086  -0.278   0.004  -0.242   0.306  -0.111   0.171   0.139
    0.284   0.253  -0.454  -0.144   0.626  -0.007  -0.142  -0.316   0.353  -0.354   0.307  -0.441  -0.235
   -0.009  -0.028   0.084   0.067   0.313   0.230  -0.730   0.623  -0.078   0.297  -0.073   0.280   0.339
   -0.195  -0.063  -0.070  -0.346   0.199  -0.324  -0.255   0.218  -0.391   0.132   0.011  -0.387   0.569
   -0.025   0.119  -0.206   0.118   0.032   0.251  -0.125  -0.160   0.330   0.154  -0.015  -0.281   0.065
   -0.432   0.237  -0.392   0.432  -0.086  -0.135   0.060  -0.438   0.502   0.100  -0.187  -0.291  -0.771
   -0.024   0.048  -0.022   0.037   0.360   0.525   0.224  -0.393   0.087   0.035   0.235  -0.201  -0.433
    0.142  -0.468   0.000   0.137   0.565  -0.250   0.154  -0.134   0.767   0.587  -0.344   0.160  -0.195
   -0.265  -0.017   0.437   0.226  -0.488  -0.263   0.753   0.026  -0.536  -0.092   0.134   0.400   0.482
    0.362  -0.171   0.012   0.167  -0.356  -0.181   0.150  -0.109   0.346  -0.296  -0.552   0.570   0.246
    0.070   0.515  -0.002  -0.799   0.109   0.363   0.835   0.053   0.180   0.083   0.077   0.439   0.416
   -0.136   0.227  -0.103   0.382  -0.028   0.012   0.275  -0.328   0.538  -0.436  -0.056  -0.367  -0.100
   -0.186   0.501  -0.225  -0.030   0.150   0.392   0.755  -0.022  -0.105   0.071  -0.461  -0.348  -0.026

    0.350   0.345
   -0.109   0.086   0.328  -0.083   0.069   0.096  -0.361   0.062  -0.163   0.232  -0.160   0.143   0.220
    0.230   0.290  -0.370  -0.096   0.530  -0.175  -0.138  -0.207   0.371  -0.303   0.412  -0.473  -0.139
   -0.127  -0.058  -0.160   0.013   0.175   0.189  -0.630   0.507  -0.035   0.448  -0.051   0.236   0.399
   -0.227   0.063  -0.209  -0.182   0.296  -0.348  -0.196   0.192  -0.429   0.094   0.134  -0.250   0.639
    0.100   0.352  -0.299   0.181   0.035   0.205  -0.160  -0.237   0.485   0.174   0.054  -0.010   0.092
   -0.467   0.225  -0.222   0.226  -0.028  -0.066   0.179  -0.575   0.583   0.150  -0.165  -0.233  -0.699
    0.077  -0.042   0.054  -0.050   0.604   0.554   0.345  -0.297   0.073  -0.124   0.201  -0.131  -0.450
    0.076  -0.427  -0.117   0.064   0.481  -0.171   0.129  -0.220   0.840   0.767  -0.104   0.137  -0.236
   -0.294  -0.162   0.492   0.112  -0.343  -0.077   0.741   0.048  -0.505  -0.020   0.134   0.369   0.287
    0.269  -0.154  -0.136   0.008  -0.368  -0.142   0.227  -0.059   0.350  -0.423  -0.610   0.641   0.234
    0.070   0.569  -0.091  -0.842   0.183   0.460   0.759   0.136   0.276   0.219   0.196   0.550   0.254
    0.089   0.269   0.096   0.250   0.009   0.009   0.052  -0.291   0.491  -0.368  -0.085  -0.478  -0.111
   -0.214   0.097  -0.235   0.008   0.352   0.255   0.898  -0.059   0.058  -0.118  -0.409  -0.362   0.008

    0.400   0.304
   -0.095   0.060   0.218  -0.178   0.149   0.216  -0.301   0.042   0.036   0.163  -0.005   0.130   0.052
    0.194   0.373  -0.145  -0.030   0.464  -0.275   0.039   0.048   0.246  -0.226   0.342  -0.220  -0.155
   -0.191   0.004  -0.267  -0.046   0.070   0.070  -0.693   0.346  -0.061   0.394   0.163   0.098   0.555
   -0.163   0.205  -0.207  -0.126   0.346  -0.210  -0.136   0.186  -0.355   0.309   0.269  -0.044   0.528
   -0.100   0.484  -0.371   0.121   0.035   0.153  -0.215  -0.245   0.337   0.007   0.048  -0.115   0.190
   -0.451   0.355  -0.170   0.264  -0.013  -0.189   0.151  -0.590   0.372   0.183  -0.209  -0.252  -0.648
    0.027  -0.126   0.043  -0.029   0.629   0.539   0.304  -0.319  -0.000   0.059   0.293  -0.133  -0.538
   -0.112  -0.552  -0.035   0.180   0.457  -0.181   0.048  -0.371   1.073   0.786  -0.073   0.198  -0.308
   -0.189  -0.251   0.446   0.103  -0.451   0.113   0.681   0.026  -0.673  -0.114   0.019   0.402   0.229
    0.165  -0.168  -0.224   0.065  -0.247  -0.318   0.188  -0.181   0.348  -0.389  -0.565   0.547   0.097
    0.145   0.609  -0.020  -0.910   0.404   0.596   0.930  -0.002   0.508   0.286   0.207   0.421   0.325
    0.221   0.372   0.197   0.322  -0.044  -0.020  -0.015  -0.341   0.533  -0.447  -0.065  -0.471  -0.125
   -0.153   0.148  -0.246  -0.042   0.252   0.210   0.879  -0.166  -0.075  -0.075  -0.344  -0.477   0.091

    0.450   0.159
   -0.118   0.244   0.432  -0.138   0.273   0.134  -0.298   0.013   0.076   0.100   0.012   0.116   0.312
    0.224   0.296  -0.129   0.141   0.578  -0.238  -0.144   0.117   0.221  -0.307   0.305  -0.279  -0.263
   -0.305  -0.042  -0.148  -0.053   0.111  -0.144  -0.725   0.499  -0.092   0.421   0.135   0.045   0.386
   -0.121   0.253  -0.146  -0.036   0.354  -0.110  -0.117   0.209  -0.390   0.466   0.298   0.099   0.395
   -0.099   0.558  -0.315   0.162   0.129   0.338  -0.106  -0.052   0.212  -0.076  -0.101  -0.370   0.158
   -0.336   0.339  -0.213   0.168  -0.119  -0.168   0.161  -0.588   0.540   0.232  -0.083  -0.180  -0.603
    0.108   0.033   0.036  -0.030   0.625   0.477   0.159  -0.156  -0.051   0.067   0.376  -0.341  -0.525
   -0.203  -0.610  -0.064   0.085   0.472  -0.355  -0.005  -0.263   1.153   0.621  -0.219   0.222  -0.388
   -0.071  -0.185   0.243   0.138  -0.419  -0.077   0.631   0.088  -0.723  -0.268   0.053   0.448   0.339
    0.004  -0.223  -0.136  -0.049  -0.308  -0.100   0.291  -0.354   0.274  -0.337  -0.677   0.509   0.301
    0.123   0.668  -0.029  -0.723   0.522   0.559   0.966  -0.058   0.593   0.227   0.382   0.373   0.415
    0.273   0.418   0.306   0.311  -0.135  -0.193  -0.074  -0.189   0.399  -0.460   0.029  -0.417  -0.021
   -0.190   0.140  -0.272   0.089   0.386   0.240   0.643  -0.289  -0.123  -0.186  -0.384  -0.551  -0.090

    0.500   0.324
   -0.166   0.327   0.475  -0.285   0.542   0.049  -0.128  -0.046   0.083   0.250   0.045   0.354   0.156
    0.114   0.319  -0.228   0.041   0.509  -0.090   0.022   0.012   0.205  -0.171   0.215  -0.318  -0.366
   -0.249   0.012  -0.146   0.200   0.188  -0.235  -0.538   0.501   0.039   0.377   0.062   0.146   0.318
   -0.100   0.103   0.005   0.034   0.305  -0.100  -0.065   0.218  -0.558   0.306   0.353   0.101   0.510
    0.003   0.389  -0.468   0.072  -0.047   0.408  -0.020   0.141   0.135   0.016  -0.217  -0.543   0.009
   -0.451   0.145  -0.142   0.013  -0.042  -0.250   0.064  -0.436   0.470   0.226  -0.071  -0.130  -0.468
    0.302   0.081   0.033   0.006   0.546   0.574   0.324  -0.228  -0.116  -0.091   0.541  -0.166  -0.545
   -0.147  -0.595  -0.113   0.062   0.505  -0.314   0.193  -0.209   1.038   0.339  -0.297   0.239  -0.492
   -0.044  -0.158   0.085   0.346  -0.216   0.004   0.508  -0.083  -0.557  -0.375   0.036   0.287   0.423
   -0.066  -0.225  -0.005  -0.057  -0.341  -0.168   0.079  -0.087   0.312  -0.543  -0.584   0.588   0.478
    0.158   0.631   0.192  -0.595   0.534   0.515   0.847  -0.216   0.503   0.010   0.398   0.420   0.071
    0.208   0.356   0.390   0.423  -0.275  -0.221  -0.080  -0.136   0.396  -0.465   0.110  -0.490   0.078
   -0.368   0.185  -0.321   0.161   0.413   0.165   0.550  -0.323  -0.031  -0.140  -0.360  -0.269  -0.188

    0.550   0.162
   -0.121   0.226   0.488  -0.410   0.409  -0.011  -0.290   0.024  -0.052   0.460  -0.020   0.352   0.037
   -0.127   0.329  -0.108  -0.002   0.620   0.069  -0.003  -0.013   0.198  -0.168   0.394  -0.516  -0.550
   -0.356  -0.030   0.131   0.187   0.261  -0.055  -0.419   0.559  -0.100   0.270   0.064  -0.007   0.185
   -0.034   0.112  -0.160   0.185   0.339  -0.032  -0.060   0.191  -0.546   0.309   0.236   0.125   0.579
   -0.090   0.150  -0.528   0.077  -0.082   0.229  -0.142   0.224   0.086  -0.168  -0.386  -0.549  -0.176
   -0.524   0.011  -0.083   0.134   0.026  -0.114   0.127  -0.211   0.399   0.316  -0.019  -0.078  -0.268
    0.204  -0.110  -0.011   0.009   0.467   0.560   0.162  -0.134  -0.110  -0.228   0.476  -0.059  -0.561
   -0.273  -0.508  -0.005   0.034   0.354  -0.431   0.256  -0.185   0.796   0.305  -0.287   0.221  -0.304
   -0.057  -0.262  -0.028   0.438  -0.149   0.104   0.473  -0.011  -0.468  -0.412   0.214   0.252   0.441
   -0.010  -0.328  -0.058   0.109  -0.191  -0.290   0.048  -0.028   0.200  -0.548  -0.556   0.780   0.497
    0.308   0.495  -0.023  -0.732   0.410   0.421   0.528  -0.379   0.361   0.092   0.585   0.577   0.166
    0.136   0.350   0.429   0.589  -0.148   0.023   0.063  -0.100   0.400  -0.440  -0.054  -0.238   0.191
   -0.277   0.208  -0.446   0.104   0.368   0.055   0.583  -0.244  -0.027  -0.020  -0.149  -0.198  -0.215

    0.600   0.064
   -0.056   0.110   0.496  -0.437   0.398  -0.135  -0.187  -0.123  -0.140   0.401   0.023   0.335   0.066
    0.037   0.415  -0.119  -0.088   0.533   0.063  -0.060   0.124   0.277  -0.226   0.455  -0.591  -0.376
   -0.350  -0.023   0.092   0.171   0.305  -0.094  -0.355   0.538  -0.044   0.209  -0.028  -0.160   0.152
   -0.075   0.262  -0.362   0.023   0.365   0.037  -0.156   0.469  -0.617   0.334   0.130   0.100   0.676
   -0.174   0.193  -0.383   0.120  -0.109   0.390  -0.234   0.253  -0.112  -0.010  -0.443  -0.500  -0.039
   -0.457   0.026   0.113   0.296   0.037  -0.039   0.057  -0.349   0.422   0.397   0.078   0.006  -0.055
    0.143  -0.185   0.187   0.133   0.360   0.724   0.064   0.001  -0.106  -0.329   0.488  -0.161  -0.614
   -0.191  -0.504  -0.096   0.007   0.417  -0.498   0.175  -0.200   0.838   0.377  -0.346   0.352  -0.227
   -0.059  -0.217   0.163   0.417  -0.185   0.099   0.462   0.043  -0.463  -0.368   0.345   0.328   0.552
    0.006  -0.444  -0.020   0.183  -0.179  -0.294   0.034   0.000   0.302  -0.374  -0.470   0.809   0.359
    0.398   0.375  -0.092  -0.658   0.447   0.400   0.545  -0.353   0.341   0.079   0.540   0.549   0.161
    0.222   0.293   0.394   0.555  -0.163  -0.088   0.109  -0.336   0.272  -0.470   0.077  -0.259   0.149
   -0.284   0.156  -0.445   0.103   0.187   0.206   0.618  -0.041  -0.021   0.042  -0.038  -0.175  -0.250

    0.650   0.114
   -0.127   0.107   0.649  -0.263   0.447   0.077  -0.275  -0.102  -0.079   0.438   0.028   0.201   0.114
    0.169   0.387  -0.021  -0.091   0.557  -0.147  -0.049   0.423   0.189  -0.250   0.373  -0.662  -0.362
   -0.152   0.377  -0.043   0.259   0.448  -0.361  -0.325   0.439   0.003   0.119   0.141  -0.066   0.329
   -0.027   0.207  -0.355  -0.087   0.198   0.125  -0.038   0.365  -0.518   0.393  -0.036  -0.050   0.637
   -0.305   0.213  -0.420   0.138  -0.004   0.572  -0.247   0.202  -0.021  -0.012  -0.312  -0.335  -0.064
   -0.454   0.068   0.005   0.387   0.029   0.077   0.146  -0.279   0.241   0.396   0.090  -0.113  -0.018
   -0.057  -0.145   0.212   0.025   0.267   0.666   0.114  -0.114   0.093  -0.421   0.462  -0.165  -0.459
   -0.270  -0.423   0.015  -0.158   0.570  -0.564   0.137  -0.163   0.923   0.416  -0.396   0.144  -0.243
   -0.168  -0.266   0.056   0.339  -0.172   0.159   0.499   0.061  -0.673  -0.395   0.252   0.313   0.368
    0.255  -0.634   0.043   0.123  -0.335  -0.160   0.034  -0.034   0.240  -0.497  -0.425   0.835   0.308
    0.143   0.439  -0.060  -0.514   0.265   0.309   0.439  -0.488   0.179   0.141   0.543   0.636   0.162
    0.102   0.286   0.230   0.526  -0.146  -0.117  -0.058  -0.393   0.236  -0.364  -0.068  -0.297   0.188
   -0.248   0.077  -0.459  -0.028   0.180   0.115   0.533  -0.092   0.190  -0.085   0.009  -0.223  -0.289

    0.700   0.113
   -0.283   0.377   0.463  -0.210   0.409   0.160  -0.237  -0.128  -0.002   0.407   0.026   0.283  -0.050
    0.344   0.328  -0.023  -0.105   0.538   0.207  -0.233   0.525   0.170  -0.464   0.348  -0.527  -0.353
   -0.193   0.458  -0.032   0.110   0.277  -0.209  -0.489   0.382   0.138   0.167   0.023   0.027   0.342
    0.056   0.049  -0.332  -0.049   0.221   0.007  -0.043   0.427  -0.361   0.621  -0.178  -0.124   0.544
   -0.086   0.243  -0.509   0.231   0.208   0.649  -0.174   0.105   0.131   0.204  -0.297  -0.306  -0.236
   -0.539   0.171   0.132   0.394   0.073   0.059   0.255  -0.247   0.224   0.321  -0.054  -0.245  -0.083
   -0.067  -0.250   0.091   0.000   0.358   0.664   0.113  -0.231   0.128  -0.360   0.543  -0.199  -0.561
   -0.205  -0.690  -0.013  -0.248   0.690  -0.596   0.069  -0.151   0.905   0.502  -0.390   0.042  -0.061
   -0.057  -0.142   0.074   0.386  -0.189   0.165   0.346   0.015  -0.490  -0.139   0.226   0.386   0.245
    0.383  -0.507  -0.073   0.178  -0.465  -0.220   0.046  -0.070   0.256  -0.383  -0.481   0.657   0.237
    0.021   0.548  -0.203  -0.326   0.391   0.357   0.530  -0.295   0.287   0.110   0.555   0.412   0.305
    0.213   0.196   0.346   0.424  -0.125  -0.153  -0.239  -0.269  -0.045  -0.407  -0.034  -0.125   0.245
   -0.112  -0.042  -0.657  -0.116   0.198   0.279   0.507  -0.175   0.161  -0.086   0.001  -0.325  -0.176

    0.750   0.128
   -0.247   0.428   0.284  -0.193   0.459   0.103  -0.029  -0.145   0.095   0.349  -0.024   0.138  -0.198
    0.271   0.278  -0.091  -0.146   0.541   0.049  -0.045   0.509   0.120  -0.231   0.300  -0.649  -0.061
   -0.377   0.217  -0.169   0.131   0.264  -0.278  -0.451   0.432   0.083   0.229   0.038   0.005   0.391
   -0.134   0.045  -0.238  -0.116   0.308  -0.154   0.009   0.546  -0.510   0.747  -0.208  -0.100   0.481
   -0.076   0.567  -0.545   0.267   0.078   0.672  -0.291   0.208   0.293   0.161  -0.284  -0.439  -0.333
   -0.528   0.072   0.253   0.392  -0.029   0.040   0.171  -0.331   0.199   0.272   0.062   0.037  -0.223
   -0.200  -0.194   0.055  -0.079   0.459   0.858   0.128  -0.288   0.153  -0.368   0.570  -0.203  -0.619
   -0.113  -0.822  -0.006  -0.308   0.650  -0.447   0.093  -0.377   0.877   0.474  -0.249   0.185  -0.050
   -0.070  -0.172   0.128   0.284  -0.135   0.068   0.412   0.043  -0.565  -0.171   0.364   0.385   0.257
    0.347  -0.383  -0.213   0.189  -0.441  -0.235   0.096  -0.135   0.266  -0.406  -0.569   0.771   0.353
    0.022   0.423  -0.176  -0.452   0.382   0.356   0.521  -0.130   0.297   0.032   0.592   0.435   0.374
    0.066   0.209   0.431   0.319  -0.034  -0.143  -0.108  -0.167   0.002  -0.243  -0.086  -0.192   0.278
   -0.193   0.019  -0.590   0.016   0.146   0.247   0.493  -0.108   0.105  -0.040  -0.155  -0.435  -0.117

    0.800  -0.120
   -0.372   0.452   0.337  -0.237   0.501   0.087  -0.049  -0.235   0.134   0.346  -0.004   0.096  -0.041
    0.215   0.221  -0.078  -0.264   0.397  -0.030   0.019   0.431   0.203   0.034   0.308  -0.619  -0.043
   -0.547   0.252  -0.095   0.314   0.366  -0.213  -0.460   0.601   0.044   0.038  -0.011  -0.044   0.348
   -0.167   0.046  -0.350   0.060   0.459  -0.085   0.024   0.480  -0.510   0.713  -0.138   0.022   0.559
   -0.048   0.545  -0.117   0.054   0.058   0.615  -0.229   0.384   0.246  -0.054  -0.258  -0.453  -0.340
   -0.603   0.293   0.259   0.352  -0.210   0.040   0.210  -0.415   0.153   0.165   0.261   0.046  -0.319
   -0.246  -0.114   0.049   0.133   0.400   0.741  -0.120  -0.196   0.025  -0.237   0.630  -0.289  -0.666
   -0.131  -0.785  -0.067  -0.202   0.722  -0.370   0.265  -0.272   0.774   0.497  -0.325   0.189   0.006
   -0.196  -0.083   0.413   0.262  -0.066   0.085   0.550   0.059  -0.594  -0.287   0.269   0.405   0.195
    0.282  -0.428  -0.420   0.157  -0.416  -0.289   0.177  -0.315   0.231  -0.514  -0.596   0.683   0.269
    0.012   0.529  -0.109  -0.524   0.291   0.618   0.452   0.050   0.206   0.097   0.373   0.348   0.239
    0.103   0.063   0.539   0.448  -0.072  -0.237  -0.147  -0.222  -0.039  -0.104  -0.249  -0.227  -0.126
   -0.183   0.115  -0.448   0.038   0.361   0.213   0.495  -0.126   0.115   0.053  -0.371  -0.359  -0.273

    0.850  -0.133
   -0.387   0.253   0.287  -0.342   0.457   0.102   0.003  -0.287  -0.084   0.452  -0.058  -0.062  -0.162
    0.225   0.330   0.035  -0.133   0.471   0.090  -0.055   0.229   0.138   0.096   0.325  -0.640  -0.067
   -0.567   0.374   0.060   0.215   0.314  -0.277  -0.359   0.628   0.170   0.068   0.032  -0.156   0.324
   -0.150   0.002  -0.283   0.002   0.358  -0.130   0.076   0.515  -0.497   0.637  -0.010   0.183   0.460
   -0.257   0.461  -0.099   0.133  -0.110   0.548  -0.273   0.414   0.041  -0.113  -0.596  -0.243  -0.322
   -0.588   0.411   0.260   0.294  -0.180  -0.026   0.251  -0.499   0.232   0.139   0.224   0.059  -0.240
   -0.304  -0.044  -0.070   0.010   0.394   0.765  -0.133  -0.360   0.038  -0.389   0.568  -0.269  -0.680
   -0.163  -0.813  -0.036  -0.126   0.774  -0.151   0.436  -0.093   0.615   0.470  -0.468   0.082   0.061
    0.003   0.040   0.452   0.198  -0.154   0.010   0.352  -0.002  -0.442  -0.351   0.339   0.480   0.212
    0.129  -0.469  -0.269   0.060  -0.403  -0.402   0.159  -0.330   0.134  -0.523  -0.550   0.589   0.257
   -0.076   0.588  -0.055  -0.524   0.274   0.594   0.459   0.140   0.360  -0.041   0.380   0.435   0.271
    0.167   0.099   0.567   0.361  -0.225  -0.100  -0.233  -0.071  -0.057  -0.120  -0.322  -0.340  -0.110
    0.006   0.117  -0.431   0.061   0.484   0.020   0.398  -0.338   0.006   0.112  -0.334  -0.332  -0.200

    0.900  -0.056
   -0.322   0.123   0.256  -0.285   0.478   0.125  -0.080  -0.285  -0.142   0.441   0.097  -0.107  -0.270
    0.332   0.212   0.297  -0.191   0.384  -0.017  -0.134   0.265   0.270   0.184   0.207  -0.568   0.033
   -0.610   0.278   0.004  -0.000   0.422  -0.138  -0.553   0.667   0.090   0.085  -0.017  -0.034   0.405
   -0.166   0.112  -0.382  -0.035   0.323  -0.185   0.161   0.491  -0.503   0.381   0.054   0.079   0.631
   -0.328   0.475  -0.218   0.195  -0.235   0.590  -0.206   0.427  -0.066  -0.117  -0.633  -0.100  -0.375
   -0.455   0.436   0.220   0.380   0.025  -0.156   0.335  -0.603   0.087   0.153   0.561   0.076  -0.343
   -0.429  -0.084   0.039   0.009   0.360   0.748  -0.056  -0.424   0.145  -0.287   0.401  -0.137  -0.578
   -0.221  -0.759  -0.100  -0.056   0.702  -0.141   0.508  -0.147   0.493   0.487  -0.446   0.152   0.152
    0.017   0.094   0.493   0.128  -0.119   0.061   0.321  -0.102  -0.472  -0.175   0.312   0.534   0.317
    0.005  -0.503  -0.191   0.034  -0.434  -0.198   0.193  -0.130  -0.031  -0.496  -0.350   0.593   0.242
    0.158   0.523  -0.154  -0.478   0.223   0.460   0.458   0.203   0.358  -0.013   0.406   0.428   0.252
    0.046   0.102   0.451   0.274  -0.055  -0.237  -0.225  -0.241  -0.073  -0.063  -0.312  -0.390  -0.105
    0.025  -0.031  -0.412  -0.086   0.409   0.114   0.563  -0.242   0.298   0.156  -0.226  -0.224  -0.226

    0.950   0.062
   -0.454   0.095   0.189  -0.213   0.455   0.158   0.039  -0.263  -0.147   0.334   0.013  -0.090  -0.211
    0.283   0.320   0.425  -0.109   0.159   0.032  -0.205   0.290   0.234   0.162   0.380  -0.503  -0.092
   -0.458   0.059  -0.041   0.020   0.542  -0.296  -0.568   0.715   0.143   0.140  -0.096   0.028   0.317
   -0.140   0.021  -0.223  -0.111   0.277  -0.102   0.215   0.638  -0.473   0.393   0.127   0.141   0.600
   -0.209   0.456  -0.158   0.144  -0.099   0.638  -0.358   0.386  -0.032  -0.073  -0.569  -0.001  -0.188
   -0.525   0.354   0.227   0.271   0.091   0.020   0.215  -0.570   0.087   0.180   0.447  -0.051  -0.517
   -0.663   0.016  -0.067   0.128   0.246   0.642   0.062  -0.378  -0.092  -0.271   0.315  -0.136  -0.533
   -0.350  -0.638  -0.016  -0.263   0.681  -0.380   0.570  -0.199   0.609   0.664  -0.401  -0.150   0.097
   -0.060  -0.067   0.664   0.223  -0.257  -0.149   0.274  -0.200  -0.494  -0.166   0.184   0.392   0.256
    0.063  -0.349  -0.296   0.038  -0.454  -0.397   0.238  -0.260   0.070  -0.719  -0.218   0.644   0.272
    0.120   0.474   0.023  -0.407   0.153   0.440   0.440   0.098   0.443  -0.033   0.598   0.444   0.243
   -0.206   0.280   0.540   0.225  -0.027  -0.073  -0.165  -0.058  -0.086  -0.180  -0.144  -0.360  -0.095
    0.150  -0.026  -0.560  -0.058   0.531   0.037   0.726  -0.076   0.267   0.085  -0.164  -0.257  -0.371

    1.000   0.144
   -0.202   0.000   0.207  -0.077   0.256   0.038  -0.132  -0.144  -0.264   0.236   0.125  -0.224  -0.130
    0.215   0.334   0.512  -0.156   0.265  -0.135  -0.174   0.127   0.301   0.156   0.431  -0.599   0.115
   -0.252   0.088  -0.006   0.055   0.416  -0.243  -0.498   0.752   0.180   0.272   0.021  -0.003   0.188
   -0.085  -0.197  -0.208   0.052   0.199  -0.004   0.095   0.734  -0.241   0.156   0.143   0.237   0.623
   -0.085   0.414  -0.204   0.261  -0.108   0.758  -0.183   0.407  -0.182  -0.233  -0.609   0.086  -0.065
   -0.467   0.357   0.356   0.166   0.180  -0.070   0.113  -0.549   0.123   0.244   0.147  -0.117  -0.373
   -0.564   0.028  -0.161   0.049   0.219   0.651   0.144  -0.352  -0.218  -0.117   0.210  -0.116  -0.468
   -0.148  -0.382  -0.033  -0.319   0.848  -0.419   0.515  -0.308   0.287   0.671  -0.285  -0.169   0.143
    0.005  -0.195   0.572   0.279  -0.261  -0.269   0.281  -0.233  -0.602  -0.273   0.065   0.250   0.394
    0.327  -0.285  -0.391   0.064  -0.312  -0.264   0.139  -0.179   0.256  -0.782  -0.035   0.641   0.196
    0.013   0.351  -0.001  -0.383  -0.035   0.417   0.320   0.012   0.348  -0.138   0.348   0.361   0.244
   -0.219   0.475   0.454   0.399  -0.066  -0.054  -0.128  -0.186  -0.156  -0.058  -0.112  -0.366  -0.295
    0.075  -0.100  -0.630  -0.078   0.467  -0.014   0.635  -0.117   0.323   0.072   0.006  -0.065  -0.309

    1.050   0.365
   -0.241   0.066   0.202   0.108   0.166  -0.129  -0.129   0.067  -0.332   0.331   0.183  -0.036  -0.029