
This hub-height turbulence-parameter file was generated by TurbSim (v1.06.00, 21-Sep-2012) on 28-Mar-2017 at 17:56:19.

   Time      U       Uh       Ut        V        W        u'       v'       w'      u'w'     u'v'     v'w'     TKE      CTKE
   0.00    9.848    9.854    9.864    0.350    0.449    1.280    0.350    0.449    0.574    0.448    0.157    0.981    0.372
   0.05    9.882    9.888    9.891    0.347    0.257    1.314    0.347    0.257    0.338    0.456    0.089    0.957    0.287
   0.10    9.849    9.856    9.861    0.363    0.316    1.282    0.363    0.316    0.405    0.465    0.114    0.937    0.313
   0.15    9.857    9.862    9.870    0.317    0.380    1.290    0.317    0.380    0.490    0.409    0.121    0.954    0.325
   0.20    9.920    9.921    9.924    0.187    0.240    1.352    0.187    0.240    0.324    0.253    0.045    0.960    0.207
   0.25    9.871    9.873    9.876    0.181    0.254    1.303    0.181    0.254    0.331    0.236    0.046    0.898    0.205
   0.30    9.770    9.771    9.774    0.176    0.224    1.202    0.176    0.224    0.269    0.211    0.039    0.763    0.172
   0.35    9.783    9.783    9.789    0.072    0.345    1.215    0.072    0.345    0.419    0.087    0.025    0.800    0.215
   0.40    9.788    9.789    9.793   -0.055    0.304    1.221   -0.055    0.304    0.371   -0.067   -0.017    0.793    0.189
   0.45    9.527    9.527    9.528    0.043    0.159    0.959    0.043    0.159    0.153    0.041    0.007    0.473    0.079
   0.50    9.624    9.624    9.629    0.009    0.324    1.056    0.009    0.324    0.342    0.009    0.003    0.610    0.171
   0.55    9.785    9.785    9.787   -0.135    0.162    1.217   -0.135    0.162    0.197   -0.164   -0.022    0.762    0.129
   0.60    9.547    9.549    9.549   -0.199    0.064    0.979   -0.199    0.064    0.063   -0.195   -0.013    0.502    0.103
   0.65    9.557    9.557    9.557   -0.030    0.114    0.989   -0.030    0.114    0.113   -0.029   -0.003    0.496    0.058
   0.70    9.634    9.634    9.635   -0.027    0.113    1.066   -0.027    0.113    0.120   -0.028   -0.003    0.575    0.062
   0.75    9.588    9.589    9.590   -0.142    0.128    1.020   -0.142    0.128    0.130   -0.145   -0.018    0.539    0.098
   0.80    9.547    9.548    9.549   -0.140   -0.120    0.979   -0.140   -0.120   -0.117   -0.137    0.017    0.496    0.091
   0.85    9.464    9.466    9.467   -0.172   -0.133    0.896   -0.172   -0.133   -0.119   -0.154    0.023    0.425    0.098
   0.90    9.370    9.378    9.378   -0.376   -0.056    0.803   -0.376   -0.056   -0.045   -0.302    0.021    0.394    0.153
   0.95    9.379    9.381    9.381   -0.195    0.062    0.811   -0.195    0.062    0.050   -0.158   -0.012    0.350    0.083
   1.00    9.398    9.400    9.401   -0.171    0.144    0.830   -0.171    0.144    0.119   -0.142   -0.025    0.370    0.094
   1.05    9.455    9.460    9.467   -0.302    0.365    0.887   -0.302    0.365    0.324   -0.268   -0.110    0.506    0.217
   1.10    9.272    9.281    9.288   -0.413    0.344    0.704   -0.413    0.344    0.242   -0.291   -0.142    0.392    0.202
   1.15    9.161    9.173    9.178   -0.470    0.304    0.593   -0.470    0.304    0.180   -0.279   -0.143    0.333    0.181
   1.20    9.298    9.306    9.310   -0.368    0.276    0.731   -0.368    0.276    0.202   -0.269   -0.102    0.373    0.176
   1.25    9.309    9.317    9.323   -0.366    0.354    0.742   -0.366    0.354    0.263   -0.272   -0.130    0.405    0.200
   1.30    9.393    9.397    9.409   -0.278    0.481    0.825   -0.278    0.481    0.397   -0.230   -0.134    0.495    0.239
   1.35    9.187    9.188    9.206   -0.186    0.564    0.619   -0.186    0.564    0.349   -0.115   -0.105    0.368    0.191
   1.40    9.270    9.272    9.294   -0.168    0.641    0.703   -0.168    0.641    0.450   -0.118   -0.108    0.466    0.239
   1.45    9.361    9.362    9.388    0.051    0.698    0.794    0.051    0.698    0.554    0.040    0.035    0.560    0.278
   1.50    9.326    9.326    9.343   -0.043    0.568    0.758   -0.043    0.568    0.431   -0.032   -0.024    0.450    0.216
   1.55    9.111    9.111    9.137   -0.063    0.693    0.543   -0.063    0.693    0.377   -0.034   -0.044    0.390    0.190
   1.60    8.929    8.930    8.945   -0.094    0.519    0.361   -0.094    0.519    0.188   -0.034   -0.049    0.204    0.098
   1.65    9.152    9.152    9.170   -0.084    0.569    0.584   -0.084    0.569    0.333   -0.049   -0.048    0.336    0.170
   1.70    9.321    9.321    9.346   -0.005    0.683    0.753   -0.005    0.683    0.514   -0.004   -0.003    0.517    0.257
   1.75    9.465    9.465    9.494    0.025    0.733    0.898    0.025    0.733    0.658    0.022    0.018    0.672    0.329
   1.80    9.442    9.442    9.466   -0.077    0.670    0.874   -0.077    0.670    0.586   -0.067   -0.052    0.609    0.296
   1.85    9.387    9.387    9.419    0.126    0.767    0.819    0.126    0.767    0.628    0.103    0.096    0.637    0.322
   1.90    9.358    9.359    9.386    0.158    0.711    0.790    0.158    0.711    0.561    0.125    0.112    0.577    0.293
   1.95    9.351    9.355    9.375    0.280    0.616    0.783    0.280    0.616    0.482    0.219    0.172    0.535    0.279
   2.00    9.501    9.505    9.526    0.277    0.638    0.933    0.277    0.638    0.595    0.259    0.177    0.677    0.336
   2.05    9.471    9.471    9.495    0.108    0.663    0.903    0.108    0.663    0.599    0.098    0.072    0.633    0.305
   2.10    9.555    9.556    9.569    0.154    0.501    0.987    0.154    0.501    0.495    0.152    0.077    0.625    0.262
   2.15    9.548    9.548    9.561    0.098    0.497    0.980    0.098    0.497    0.487    0.096    0.049    0.608    0.249
   2.20    9.618    9.618    9.631    0.110    0.488    1.050    0.110    0.488    0.512    0.115    0.053    0.676    0.264
   2.25    9.743    9.743    9.761    0.111    0.584    1.175    0.111    0.584    0.686    0.130    0.065    0.867    0.351
   2.30    9.937    9.937    9.952    0.114    0.532    1.369    0.114    0.532    0.729    0.156    0.061    1.085    0.374
   2.35    9.807    9.809    9.829    0.197    0.627    1.239    0.197    0.627    0.777    0.244    0.123    0.984    0.412
   2.40    9.679    9.679    9.696    0.092    0.573    1.111    0.092    0.573    0.637    0.102    0.053    0.785    0.323
   2.45    9.606    9.606    9.621    0.020    0.527    1.038    0.020    0.527    0.547    0.020    0.010    0.678    0.274
   2.50    9.588    9.588    9.609   -0.005    0.638    1.020   -0.005    0.638    0.651   -0.005   -0.003    0.724    0.325
   2.55    9.726    9.729    9.750   -0.231    0.641    1.159   -0.231    0.641    0.743   -0.268   -0.148    0.904    0.402
   2.60    9.792    9.792    9.807   -0.067    0.534    1.224   -0.067    0.534    0.654   -0.082   -0.036    0.894    0.330
   2.65    9.857    9.857    9.864   -0.087    0.369    1.289   -0.087    0.369    0.475   -0.113   -0.032    0.903    0.245
   2.70    9.961    9.961    9.978   -0.002    0.585    1.393   -0.002    0.585    0.815   -0.003   -0.001    1.141    0.408
   2.75    9.927    9.927    9.957   -0.008    0.776    1.359   -0.008    0.776    1.055   -0.011   -0.006    1.225    0.527
   2.80    9.821    9.822    9.839   -0.087    0.580    1.254   -0.087    0.580    0.727   -0.109   -0.050    0.958    0.368
   2.85   10.096   10.097   10.109   -0.127    0.504    1.528   -0.127    0.504    0.770   -0.194   -0.064    1.303    0.398
   2.90    9.916    9.917    9.935   -0.093    0.603    1.348   -0.093    0.603    0.813   -0.126   -0.056    1.095    0.412
   2.95    9.698    9.700    9.728   -0.177    0.740    1.131   -0.177    0.740    0.836   -0.200   -0.131    0.928    0.435
   3.00    9.794    9.796    9.815   -0.187    0.616    1.226   -0.187    0.616    0.755   -0.229   -0.115    0.959    0.399
   3.05    9.821    9.823    9.842   -0.197    0.614    1.253   -0.197    0.614    0.770   -0.247   -0.121    0.993    0.409
   3.10    9.692    9.696    9.714   -0.266    0.602    1.124   -0.266    0.602    0.677   -0.299   -0.160    0.849    0.379
   3.15    9.747    9.747    9.762   -0.013    0.544    1.179   -0.013    0.544    0.641   -0.016   -0.007    0.843    0.321
   3.20    9.787    9.787    9.809    0.034    0.654    1.219    0.034    0.654    0.798    0.041    0.022    0.958    0.400
   3.25    9.879    9.879    9.902    0.105    0.671    1.311    0.105    0.671    0.880    0.137    0.070    1.090    0.446
   3.30    9.713    9.721    9.743    0.397    0.656    1.145    0.397    0.656    0.752    0.455    0.261    0.950    0.458
   3.35    9.549    9.550    9.577    0.183    0.711    0.981    0.183    0.711    0.697    0.179    0.130    0.750    0.366
   3.40    9.262    9.262    9.295    0.015    0.784    0.694    0.015    0.784    0.544    0.011    0.012    0.548    0.272
   3.45    9.100    9.105    9.139    0.299    0.788    0.533    0.299    0.788    0.420    0.159    0.236    0.497    0.254
   3.50    9.010    9.020    9.060    0.435    0.845    0.442    0.435    0.845    0.373    0.192    0.367    0.549    0.279
   3.55    9.143    9.161    9.190    0.575    0.720    0.576    0.575    0.720    0.414    0.331    0.414    0.590    0.336
   3.60    9.328    9.340    9.379    0.478    0.847    0.760    0.478    0.847    0.644    0.363    0.405    0.762    0.421
   3.65    9.174    9.188    9.227    0.498    0.844    0.607    0.498    0.844    0.512    0.302    0.421    0.664    0.364
   3.70    9.260    9.272    9.294    0.469    0.644    0.692    0.469    0.644    0.446    0.325    0.302    0.557    0.314
   3.75    9.213    9.220    9.235    0.358    0.516    0.646    0.358    0.516    0.333    0.231    0.185    0.406    0.223
   3.80    9.173    9.178    9.193    0.311    0.521    0.605    0.311    0.521    0.315    0.188    0.162    0.367    0.201
   3.85    9.258    9.266    9.277    0.395    0.456    0.690    0.395    0.456    0.315    0.273    0.180    0.420    0.227
   3.90    9.283    9.286    9.300    0.242    0.496    0.715    0.242    0.496    0.355    0.173    0.120    0.408    0.206
   3.95    9.407    9.412    9.422    0.309    0.437    0.839    0.309    0.437    0.366    0.259    0.135    0.495    0.234
   4.00    9.446    9.450    9.458    0.285    0.390    0.878    0.285    0.390    0.342    0.250    0.111    0.502    0.219
   4.05    9.379    9.383    9.389    0.274    0.329    0.811    0.274    0.329    0.267    0.222    0.090    0.421    0.179
   4.10    9.288    9.292    9.297    0.261    0.320    0.721    0.261    0.320    0.231    0.188    0.083    0.345    0.154
   4.15    9.083    9.088    9.092    0.305    0.272    0.515    0.305    0.272    0.140    0.157    0.083    0.216    0.113
   4.20    9.143    9.152    9.158    0.421    0.328    0.575    0.421    0.328    0.189    0.242    0.138    0.308    0.168
   4.25    9.284    9.298    9.300    0.514    0.210    0.716    0.514    0.210    0.151    0.368    0.108    0.411    0.206
   4.30    9.115    9.132    9.137    0.560    0.299    0.547    0.560    0.299    0.163    0.306    0.167    0.351    0.193
   4.35    9.008    9.046    9.057    0.828    0.438    0.441    0.828    0.438    0.193    0.365    0.363    0.536    0.275
   4.40    8.975    9.000    9.014    0.671    0.492    0.407    0.671    0.492    0.200    0.273    0.330    0.429    0.237
   4.45    8.906    8.922    8.935    0.530    0.486    0.338    0.530    0.486    0.164    0.179    0.258    0.316    0.177
   4.50    8.999    9.022    9.029    0.636    0.347    0.432    0.636    0.347    0.150    0.275    0.221    0.356    0.192
   4.55    8.970    9.002    9.008    0.760    0.320    0.402    0.760    0.320    0.129    0.306    0.243    0.421    0.206
   4.60    8.931    8.944    8.947    0.477    0.242    0.363    0.477    0.242    0.088    0.173    0.115    0.209    0.113
   4.65    9.002    9.012    9.017    0.419    0.321    0.434    0.419    0.321    0.139    0.182    0.134    0.234    0.133
   4.70    9.027    9.029    9.033    0.160    0.293    0.459    0.160    0.293    0.135    0.074    0.047    0.161    0.080
   4.75    9.196    9.201    9.205    0.304    0.274    0.629    0.304    0.274    0.172    0.191    0.083    0.281    0.135
   4.80    9.284    9.294    9.296    0.416    0.224    0.717    0.416    0.224    0.160    0.298    0.093    0.369    0.176
   4.85    9.303    9.309    9.315    0.345    0.346    0.735    0.345    0.346    0.255    0.253    0.119    0.389    0.189
   4.90    9.381    9.385    9.397    0.287    0.465    0.813    0.287    0.465    0.378    0.234    0.134    0.480    0.232
   4.95    9.284    9.285    9.289    0.098    0.272    0.717    0.098    0.272    0.195    0.070    0.027    0.298    0.104
   5.00    9.332    9.332    9.332   -0.010    0.054    0.764   -0.010    0.054    0.041   -0.007   -0.001    0.293    0.021
   5.05    9.379    9.379    9.381   -0.075    0.150    0.811   -0.075    0.150    0.122   -0.061   -0.011    0.343    0.068
   5.10    9.445    9.446    9.447   -0.092    0.164    0.878   -0.092    0.164    0.144   -0.080   -0.015    0.403    0.083
   5.15    9.554    9.554    9.555    0.027    0.117    0.986    0.027    0.117    0.116    0.027    0.003    0.493    0.059
   5.20    9.527    9.527    9.528    0.067    0.097    0.959    0.067    0.097    0.093    0.064    0.007    0.467    0.057
   5.25    9.445    9.445    9.445   -0.012    0.044    0.877   -0.012    0.044    0.038   -0.011   -0.001    0.386    0.020
   5.30    9.432    9.432    9.432    0.050    0.107    0.864    0.050    0.107    0.092    0.043    0.005    0.380    0.051
   5.35    9.469    9.471    9.472    0.173    0.143    0.901    0.173    0.143    0.129    0.156    0.025    0.431    0.102
   5.40    9.418    9.418    9.421    0.132    0.231    0.850    0.132    0.231    0.196    0.112    0.030    0.396    0.114
   5.45    9.468    9.471    9.472    0.216    0.132    0.901    0.216    0.132    0.119    0.194    0.029    0.438    0.115
   5.50    9.322    9.324    9.326    0.207    0.176    0.754    0.207    0.176    0.133    0.156    0.037    0.321    0.104
   5.55    9.258    9.259    9.262    0.147    0.248    0.690    0.147    0.248    0.171    0.101    0.036    0.280    0.101
   5.60    9.195    9.199    9.201    0.266    0.223    0.627    0.266    0.223    0.140    0.167    0.059    0.257    0.113
   5.65    9.170    9.171    9.176    0.103    0.321    0.602    0.103    0.321    0.194    0.062    0.033    0.238    0.103
   5.70    9.359    9.359    9.364    0.113    0.278    0.791    0.113    0.278    0.220    0.089    0.031    0.358    0.120
   5.75    9.427    9.432    9.435    0.298    0.236    0.860    0.298    0.236    0.203    0.256    0.070    0.442    0.167
   5.80    9.392    9.396    9.398    0.255    0.184    0.825    0.255    0.184    0.152    0.211    0.047    0.390    0.132
   5.85    9.356    9.360    9.362    0.300    0.146    0.788    0.300    0.146    0.115    0.236    0.044    0.366    0.133
   5.90    9.467    9.469    9.473    0.194    0.273    0.900    0.194    0.273    0.246    0.175    0.053    0.461    0.153
   5.95    9.444    9.446    9.448    0.198    0.146    0.877    0.198    0.146    0.128    0.173    0.029    0.415    0.109
   6.00    9.375    9.376    9.376    0.101   -0.042    0.807    0.101   -0.042   -0.034    0.081   -0.004    0.332    0.044
   6.05    9.335    9.335    9.335    0.011    0.029    0.767    0.011    0.029    0.022    0.009    0.000    0.295    0.012
   6.10    9.267    9.267    9.267   -0.068    0.052    0.699   -0.068    0.052    0.037   -0.047   -0.004    0.248    0.030
   6.15    9.398    9.399    9.400   -0.101   -0.110    0.831   -0.101   -0.110   -0.091   -0.083    0.011    0.356    0.062
   6.20    9.351    9.354    9.354   -0.253   -0.055    0.783   -0.253   -0.055   -0.043   -0.198    0.014    0.340    0.102
   6.25    9.266    9.266    9.266   -0.080   -0.006    0.698   -0.080   -0.006   -0.004   -0.056    0.000    0.247    0.028
   6.30    9.355    9.356    9.356   -0.090    0.022    0.787   -0.090    0.022    0.017   -0.071   -0.002    0.314    0.037
   6.35    9.418    9.420    9.420   -0.155    0.106    0.850   -0.155    0.106    0.091   -0.132   -0.017    0.379    0.080
   6.40    9.378    9.378    9.378   -0.052    0.004    0.810   -0.052    0.004    0.003   -0.042   -0.000    0.330    0.021
   6.45    9.237    9.237    9.237    0.097    0.036    0.669    0.097    0.036    0.024    0.065    0.004    0.229    0.035
   6.50    9.212    9.214    9.214    0.144    0.094    0.645    0.144    0.094    0.061    0.093    0.014    0.223    0.056
   6.55    9.197    9.199    9.199    0.152   -0.031    0.630    0.152   -0.031   -0.019    0.096   -0.005    0.210    0.049
   6.60    9.244    9.245    9.249    0.102   -0.271    0.676    0.102   -0.271   -0.184    0.069   -0.028    0.271    0.099
   6.65    9.216    9.217    9.220    0.140   -0.219    0.649    0.140   -0.219   -0.142    0.091   -0.031    0.244    0.086
   6.70    9.242    9.242    9.244    0.012   -0.183    0.675    0.012   -0.183   -0.123    0.008   -0.002    0.244    0.062
   6.75    9.224    9.224    9.229    0.032   -0.288    0.656    0.032   -0.288   -0.189    0.021   -0.009    0.257    0.095
   6.80    9.398    9.398    9.403    0.085   -0.300    0.830    0.085   -0.300   -0.249    0.071   -0.026    0.393    0.130
   6.85    9.365    9.366    9.369    0.053   -0.271    0.798    0.053   -0.271   -0.216    0.042   -0.014    0.356    0.110
   6.90    9.355    9.355    9.358    0.050   -0.233    0.787    0.050   -0.233   -0.184    0.040   -0.012    0.338    0.094
   6.95    9.154    9.154    9.160    0.030   -0.329    0.586    0.030   -0.329   -0.193    0.017   -0.010    0.226    0.097
   7.00    9.084    9.084    9.085    0.011   -0.124    0.516    0.011   -0.124   -0.064    0.006   -0.001    0.141    0.032
   7.05    9.045    9.047    9.047   -0.202   -0.041    0.477   -0.202   -0.041   -0.019   -0.096    0.008    0.135    0.049
   7.10    9.078    9.084    9.086   -0.339   -0.188    0.510   -0.339   -0.188   -0.096   -0.173    0.064    0.205    0.104
   7.15    9.042    9.043    9.043   -0.126   -0.016    0.474   -0.126   -0.016   -0.008   -0.060    0.002    0.120    0.030
   7.20    9.048    9.048    9.048    0.025   -0.047    0.480    0.025   -0.047   -0.022    0.012   -0.001    0.117    0.013
   7.25    9.086    9.093    9.094    0.371    0.031    0.518    0.371    0.031    0.016    0.192    0.011    0.204    0.097
   7.30    9.085    9.095    9.096    0.427    0.118    0.517    0.427    0.118    0.061    0.221    0.050    0.232    0.117
   7.35    9.063    9.076    9.077    0.481    0.098    0.496    0.481    0.098    0.049    0.238    0.047    0.243    0.124
   7.40    9.040    9.057    9.057    0.557    0.066    0.472    0.557    0.066    0.031    0.263    0.037    0.269    0.134
   7.45    9.099    9.111    9.111    0.467    0.039    0.531    0.467    0.039    0.021    0.248    0.018    0.251    0.125
   7.50    9.058    9.067    9.068    0.417    0.104    0.490    0.417    0.104    0.051    0.204    0.043    0.212    0.107
   7.55    9.021    9.032    9.032    0.427   -0.012    0.454    0.427   -0.012   -0.005    0.194   -0.005    0.194    0.097
   7.60    8.996    9.011    9.012    0.523   -0.046    0.428    0.523   -0.046   -0.020    0.224   -0.024    0.230    0.113
   7.65    9.010    9.018    9.018    0.373    0.002    0.442    0.373    0.002    0.001    0.165    0.001    0.167    0.083
   7.70    9.067    9.081    9.081    0.495    0.043    0.499    0.495    0.043    0.021    0.247    0.021    0.248    0.125
   7.75    9.018    9.037    9.038    0.587    0.142    0.451    0.587    0.142    0.064    0.264    0.083    0.284    0.142
   7.80    9.071    9.098    9.100    0.690    0.203    0.504    0.690    0.203    0.102    0.348    0.140    0.386    0.194
   7.85    8.837    8.868    8.868    0.738    0.049    0.269    0.738    0.049    0.013    0.199    0.036    0.310    0.101
   7.90    8.661    8.683    8.683    0.616    0.090    0.093    0.616    0.090    0.008    0.057    0.055    0.198    0.040
   7.95    8.694    8.719    8.722    0.656    0.247    0.126    0.656    0.247    0.031    0.083    0.162    0.253    0.092
   8.00    8.683    8.692    8.699    0.396    0.346    0.115    0.396    0.346    0.040    0.046    0.137    0.145    0.075
   8.05    8.630    8.642    8.645    0.440    0.256    0.063    0.440    0.256    0.016    0.028    0.113    0.132    0.059
   8.10    8.848    8.865    8.867    0.553    0.185    0.280    0.553    0.185    0.052    0.155    0.102    0.209    0.096
   8.15    8.851    8.881    8.881    0.725   -0.005    0.283    0.725   -0.005   -0.001    0.205   -0.004    0.303    0.103
   8.20    8.725    8.757    8.757    0.755    0.005    0.157    0.755    0.005    0.001    0.118    0.004    0.298    0.059
   8.25    8.627    8.641    8.643    0.494    0.217    0.059    0.494    0.217    0.013    0.029    0.107    0.147    0.056
   8.30    8.724    8.749    8.754    0.672    0.281    0.156    0.672    0.281    0.044    0.105    0.189    0.277    0.110
   8.35    8.572    8.608    8.613    0.784    0.288    0.004    0.784    0.288    0.001    0.003    0.226    0.349    0.113
   8.40    8.419    8.462    8.468    0.855    0.313   -0.149    0.855    0.313   -0.047   -0.127    0.268    0.426    0.150
   8.45    8.431    8.471    8.479    0.819    0.356   -0.136    0.819    0.356   -0.049   -0.112    0.292    0.408    0.158
   8.50    8.548    8.574    8.579    0.667    0.301   -0.020    0.667    0.301   -0.006   -0.013    0.201    0.268    0.101
   8.55    8.514    8.533    8.542    0.573    0.382   -0.054    0.573    0.382   -0.021   -0.031    0.219    0.238    0.111
   8.60    8.622    8.648    8.653    0.666    0.289    0.054    0.666    0.289    0.016    0.036    0.192    0.265    0.098
   8.65    8.484    8.497    8.504    0.462    0.346   -0.084    0.462    0.346   -0.029   -0.039    0.160    0.170    0.084
   8.70    8.445    8.463    8.470    0.550    0.356   -0.123    0.550    0.356   -0.044   -0.068    0.196    0.223    0.106
   8.75    8.449    8.464    8.474    0.512    0.403   -0.119    0.512    0.403   -0.048   -0.061    0.206    0.219    0.110
   8.80    8.446    8.458    8.472    0.445    0.498   -0.122    0.445    0.498   -0.061   -0.054    0.222    0.231    0.118
   8.85    8.599    8.606    8.609    0.359    0.216    0.031    0.359    0.216    0.007    0.011    0.078    0.088    0.039
   8.90    8.707    8.709    8.711    0.180    0.197    0.140    0.180    0.197    0.028    0.025    0.035    0.045    0.026
   8.95    8.735    8.736    8.737    0.121    0.095    0.168    0.121    0.095    0.016    0.020    0.011    0.026    0.014
   9.00    8.982    8.983    8.983   -0.107    0.044    0.415   -0.107    0.044    0.018   -0.044   -0.005    0.093    0.024
   9.05    8.944    8.946    8.948   -0.203   -0.163    0.376   -0.203   -0.163   -0.061   -0.077    0.033    0.105    0.052
   9.10    8.813    8.822    8.822   -0.394   -0.072    0.245   -0.394   -0.072   -0.018   -0.097    0.028    0.110    0.051
   9.15    8.654    8.661    8.662   -0.357   -0.157    0.086   -0.357   -0.157   -0.013   -0.031    0.056    0.080    0.033
   9.20    8.630    8.638    8.641   -0.363   -0.231    0.062   -0.363   -0.231   -0.014   -0.023    0.084    0.095    0.044
   9.25    8.698    8.705    8.708   -0.361   -0.202    0.130   -0.361   -0.202   -0.026   -0.047    0.073    0.094    0.045
   9.30    9.039    9.045    9.050   -0.331   -0.295    0.471   -0.331   -0.295   -0.139   -0.156    0.098    0.209    0.115
   9.35    9.138    9.145    9.149   -0.370   -0.257    0.570   -0.370   -0.257   -0.146   -0.211    0.095    0.264    0.137
   9.40    9.028    9.040    9.048   -0.467   -0.366    0.461   -0.467   -0.366   -0.169   -0.215    0.171    0.282    0.161
   9.45    9.112    9.119    9.127   -0.354   -0.370    0.545   -0.354   -0.370   -0.201   -0.193    0.131    0.279    0.154
   9.50    9.051    9.055    9.064   -0.267   -0.412    0.483   -0.267   -0.412   -0.199   -0.129    0.110    0.237    0.130
   9.55    9.031    9.033    9.035   -0.219   -0.176    0.463   -0.219   -0.176   -0.081   -0.101    0.038    0.146    0.068
   9.60    8.997    8.998    9.000   -0.150   -0.176    0.429   -0.150   -0.176   -0.076   -0.064    0.026    0.119    0.051
   9.65    8.983    8.988    8.990   -0.283   -0.209    0.416   -0.283   -0.209   -0.087   -0.118    0.059    0.148    0.079
   9.70    8.955    8.961    8.966   -0.308   -0.300    0.388   -0.308   -0.300   -0.116   -0.119    0.092    0.167    0.095
   9.75    8.997    9.006    9.008   -0.402   -0.200    0.429   -0.402   -0.200   -0.086   -0.173    0.081    0.193    0.104
   9.80    9.128    9.130    9.133   -0.183   -0.246    0.560   -0.183   -0.246   -0.138   -0.102    0.045    0.204    0.089
   9.85    8.924    8.929    8.937   -0.273   -0.386    0.357   -0.273   -0.386   -0.138   -0.097    0.105    0.175    0.099
   9.90    8.871    8.873    8.878   -0.196   -0.296    0.303   -0.196   -0.296   -0.090   -0.060    0.058    0.109    0.061
   9.95    8.851    8.852    8.853   -0.143   -0.075    0.283   -0.143   -0.075   -0.021   -0.040    0.011    0.053    0.023
  10.00    8.858    8.859    8.859   -0.106   -0.002    0.290   -0.106   -0.002   -0.001   -0.031    0.000    0.048    0.015
  10.05    8.756    8.756    8.756   -0.036   -0.037    0.188   -0.036   -0.037   -0.007   -0.007    0.001    0.019    0.005
  10.10    8.743    8.743    8.743   -0.078    0.060    0.175   -0.078    0.060    0.011   -0.014   -0.005    0.020    0.009
  10.15    8.602    8.602    8.603   -0.023   -0.140    0.034   -0.023   -0.140   -0.005   -0.001    0.003    0.011    0.003
  10.20    8.720    8.720    8.726   -0.069   -0.309    0.152   -0.069   -0.309   -0.047   -0.011    0.021    0.062    0.026
  10.25    8.821    8.821    8.825   -0.080   -0.282    0.253   -0.080   -0.282   -0.071   -0.020    0.022    0.075    0.039
  10.30    8.693    8.694    8.695   -0.128   -0.130    0.126   -0.128   -0.130   -0.016   -0.016    0.017    0.024    0.014
  10.35    8.567    8.567    8.570   -0.015   -0.225   -0.001   -0.015   -0.225    0.000    0.000    0.003    0.025    0.002
  10.40    8.808    8.810    8.811    0.206   -0.078    0.240    0.206   -0.078   -0.019    0.049   -0.016    0.053    0.028
  10.45    9.031    9.035    9.035    0.274   -0.083    0.463    0.274   -0.083   -0.038    0.127   -0.023    0.148    0.067
  10.50    8.897    8.900    8.901    0.242   -0.076    0.329    0.242   -0.076   -0.025    0.080   -0.018    0.086    0.043
  10.55    8.922    8.928    8.928    0.325   -0.015    0.354    0.325   -0.015   -0.005    0.115   -0.005    0.116    0.058
  10.60    8.850    8.854    8.854    0.254   -0.056    0.283    0.254   -0.056   -0.016    0.072   -0.014    0.074    0.038
  10.65    8.903    8.903    8.906    0.032   -0.218    0.336    0.032   -0.218   -0.073    0.011   -0.007    0.081    0.037
  10.70    8.864    8.865    8.867    0.073   -0.187    0.297    0.073   -0.187   -0.056    0.022   -0.014    0.064    0.031
  10.75    8.897    8.899    8.900    0.161   -0.166    0.330    0.161   -0.166   -0.055    0.053   -0.027    0.081    0.040
  10.80    8.935    8.935    8.936    0.104   -0.107    0.367    0.104   -0.107   -0.039    0.038   -0.011    0.078    0.028
  10.85    8.939    8.939    8.939    0.056    0.080    0.371    0.056    0.080    0.030    0.021    0.004    0.074    0.018
  10.90    8.871    8.871    8.873   -0.076    0.138    0.303   -0.076    0.138    0.042   -0.023   -0.011    0.058    0.024
  10.95    8.787    8.788    8.788   -0.128   -0.086    0.219   -0.128   -0.086   -0.019   -0.028    0.011    0.036    0.018
  11.00    8.897    8.897    8.904   -0.028   -0.346    0.329   -0.028   -0.346   -0.114   -0.009    0.010    0.114    0.057
  11.05    8.700    8.701    8.706    0.116   -0.298    0.133    0.116   -0.298   -0.040    0.015   -0.035    0.060    0.027
  11.10    8.569    8.570    8.572   -0.127   -0.169    0.002   -0.127   -0.169   -0.000   -0.000    0.021    0.022    0.011
  11.15    8.769    8.771    8.771    0.184   -0.076    0.201    0.184   -0.076   -0.015    0.037   -0.014    0.040    0.021
  11.20    8.968    8.969    8.970    0.103   -0.171    0.400    0.103   -0.171   -0.069    0.041   -0.018    0.100    0.041
  11.25    9.067    9.068    9.069   -0.096   -0.137    0.500   -0.096   -0.137   -0.069   -0.048    0.013    0.139    0.042
  11.30    9.071    9.071    9.071   -0.035    0.024    0.504   -0.035    0.024    0.012   -0.018   -0.001    0.128    0.011
  11.35    9.027    9.028    9.028   -0.112   -0.020    0.459   -0.112   -0.020   -0.009   -0.051    0.002    0.112    0.026
  11.40    8.961    8.966    8.966   -0.296   -0.085    0.393   -0.296   -0.085   -0.033   -0.117    0.025    0.125    0.062
  11.45    8.779    8.785    8.786   -0.324   -0.101    0.211   -0.324   -0.101   -0.021   -0.068    0.033    0.080    0.039
  11.50    8.744    8.745    8.750   -0.144   -0.270    0.177   -0.144   -0.270   -0.048   -0.025    0.039    0.063    0.033
  11.55    8.846    8.847    8.850   -0.114   -0.241    0.278   -0.114   -0.241   -0.067   -0.032    0.027    0.074    0.040
  11.60    8.821    8.823    8.824   -0.199   -0.113    0.253   -0.199   -0.113   -0.029   -0.050    0.022    0.058    0.031
  11.65    8.699    8.707    8.709   -0.363   -0.182    0.131   -0.363   -0.182   -0.024   -0.048    0.066    0.091    0.042
  11.70    8.641    8.649    8.654   -0.376   -0.307    0.073   -0.376   -0.307   -0.022   -0.027    0.115    0.120    0.060
  11.75    8.810    8.833    8.834   -0.633   -0.127    0.242   -0.633   -0.127   -0.031   -0.153    0.080    0.238    0.088
  11.80    8.856    8.898    8.899   -0.866   -0.108    0.288   -0.866   -0.108   -0.031   -0.249    0.093    0.422    0.134
  11.85    8.975    9.013    9.014   -0.832   -0.030    0.407   -0.832   -0.030   -0.012   -0.339    0.025    0.430    0.170