
This full-field turbulence file was generated by TurbSim (v1.06.00, 21-Sep-2012) on 28-Mar-2017 at 17:56:19.

 | u-comp |  Y  x  Z  | Grid Resolution (Y x Z) | Time-step | Hub Elev | Mean U |
            13    13     14.600     14.600          0.050      87.70      8.57

 Z Coordinates (m):
  -87.600 -73.000 -58.400 -43.800 -29.200 -14.600   0.000  14.600  29.200  43.800  58.400  73.000  87.600

 Y Coordinates (m):
  -87.600 -73.000 -58.400 -43.800 -29.200 -14.600   0.000  14.600  29.200  43.800  58.400  73.000  87.600

    0.000   9.848
    9.244   9.250   9.265   9.762   9.702   8.969   9.087   9.266   9.039   9.218   9.226   8.387   8.835
   10.260  10.338   9.136   9.034   8.786   9.342   9.831   9.305   9.459   9.799   9.639   8.781   9.170
    9.607   9.525   8.802   8.900   9.127   9.844  10.054   9.715   9.372   9.212   9.871   9.776   9.045
    9.098   8.544   9.597  10.053   9.996   9.281   9.488   9.618   9.207   9.731   9.879  10.066   8.979
    9.294   9.209   9.127   9.800   9.925  10.024   9.391   9.486   9.185   9.502   9.827   9.754   9.004
    9.443   9.271   9.551   9.429   9.351   9.428   9.452   9.293   9.550   9.149   9.578   9.024   9.326
    9.104   9.260   8.941   8.555   9.138   9.712   9.848   9.448   9.920   8.563   9.662   9.553   8.494
    9.401   9.363   8.286   8.494   8.568   8.748   9.063   8.841   9.551   8.960   9.126   8.699   8.936
    7.994   8.657   8.132   9.111   8.468   7.844   8.693   8.613   8.132   7.833   8.205   8.066   7.897
    8.318   7.640   8.176   7.952   7.514   8.113   7.456   8.759   8.287   7.290   6.778   7.851   7.600
    7.015   7.378   7.531   7.551   7.090   6.589   7.843   7.669   7.714   6.949   6.833   7.270   7.229
    6.094   6.509   7.029   6.543   7.001   6.498   6.050   6.190   5.979   6.385   5.672   6.472   6.033
    1.739   2.285   3.044   3.491   2.974   2.091   2.203   2.254   2.660   2.141   2.501   2.434   3.033

    0.050   9.882
    9.379   9.285   9.290   9.757   9.705   8.945   9.159   9.260   9.107   9.208   9.019   8.598   8.920
   10.244  10.220   9.112   9.038   9.003   9.300   9.690   9.197   9.514   9.803   9.544   8.873   9.062
    9.810   9.410   8.941   8.771   9.126   9.716  10.033   9.925   9.420   9.151  10.103   9.776   8.934
    9.115   8.566   9.665  10.064   9.836   9.288   9.421   9.488   9.327   9.775   9.827   9.981   9.124
    9.265   9.266   9.168   9.751   9.821  10.106   9.313   9.309   9.100   9.431   9.904   9.870   9.000
    9.408   9.379   9.583   9.612   9.467   9.529   9.399   9.484   9.538   9.037   9.495   9.146   9.143
    9.135   9.286   9.050   8.573   9.066   9.661   9.882   9.411   9.924   8.597   9.740   9.324   8.514
    9.266   9.088   8.351   8.558   8.552   8.709   9.037   8.823   9.541   8.821   9.027   8.638   9.031
    8.093   8.452   8.036   9.219   8.525   7.879   8.727   8.640   8.016   7.773   8.198   8.174   8.084
    8.287   7.762   8.197   8.064   7.689   8.235   7.443   8.809   8.294   7.319   6.686   7.998   7.542
    7.138   7.381   7.668   7.668   7.138   6.706   7.825   7.454   7.446   6.930   6.664   7.131   7.274
    6.218   6.355   6.896   6.750   7.048   6.436   5.851   6.220   6.090   6.426   5.728   6.525   6.036
    1.858   2.307   3.203   3.396   2.803   1.986   2.095   2.126   2.720   2.083   2.388   2.561   3.010

    0.100   9.849
    9.286   9.241   9.315   9.868   9.615   8.997   9.066   9.224   9.051   9.117   9.126   8.812   8.821
   10.299  10.221   9.044   9.020   8.963   9.504   9.762   9.200   9.388   9.840   9.492   8.955   9.138
    9.808   9.483   8.885   8.877   9.337   9.741  10.093   9.972   9.517   9.250  10.088   9.762   9.067
    9.303   8.615   9.691  10.037   9.612   9.373   9.444   9.697   9.303   9.778   9.917  10.100   9.050
    9.040   9.154   9.106   9.776   9.814   9.960   9.383   9.413   8.988   9.443   9.840   9.791   8.989
    9.410   9.428   9.584   9.691   9.409   9.522   9.408   9.372   9.574   8.976   9.589   9.051   9.234
    9.164   9.251   9.004   8.499   9.010   9.643   9.849   9.560   9.887   8.637   9.760   9.385   8.365
    9.144   9.052   8.411   8.581   8.670   8.766   9.081   8.749   9.662   8.745   9.063   8.719   9.079
    8.026   8.468   8.090   9.120   8.683   7.801   8.567   8.516   7.899   7.646   8.088   8.174   8.188
    8.229   7.892   8.144   8.043   7.766   8.147   7.462   8.838   8.279   7.234   6.788   8.024   7.472
    7.270   7.561   7.724   7.725   7.094   6.821   7.972   7.535   7.364   6.994   6.737   7.208   7.250
    6.168   6.275   6.855   6.752   7.090   6.517   5.803   6.171   6.072   6.391   5.613   6.426   6.320
    1.817   2.231   3.341   3.243   2.774   2.101   2.077   2.061   2.771   2.193   2.237   2.381   3.064

    0.150   9.857
    9.233   9.270   9.375   9.829   9.661   8.828   8.925   9.152   8.897   9.158   9.112   8.707   8.592
   10.458  10.214   9.001   9.008   8.728   9.715   9.716   9.281   9.482   9.876   9.522   9.027   9.113
    9.830   9.521   8.944   8.776   9.317   9.838   9.985  10.096   9.508   9.357   9.993   9.812   9.205
    9.361   8.574   9.789   9.819   9.653   9.285   9.399   9.703   9.263   9.725   9.866  10.050   9.170
    9.033   9.238   9.047   9.863   9.891   9.990   9.437   9.480   9.029   9.535   9.699   9.771   8.980
    9.404   9.272   9.512   9.588   9.524   9.638   9.451   9.331   9.652   8.965   9.613   9.090   9.195
    9.195   9.298   9.001   8.491   8.947   9.571   9.857   9.510   9.746   8.698   9.718   9.524   8.426
    9.335   9.129   8.347   8.509   8.433   8.700   9.070   8.631   9.748   8.791   9.024   8.734   9.150
    8.143   8.669   8.028   9.096   8.670   7.982   8.616   8.601   7.851   7.644   8.032   8.123   8.169
    8.168   7.818   8.084   8.015   7.747   8.111   7.428   8.773   8.360   7.126   6.861   7.943   7.426
    7.360   7.736   7.854   7.798   7.138   6.900   7.920   7.679   7.400   7.070   6.796   7.227   7.305
    6.269   6.291   6.858   6.828   6.969   6.580   5.980   6.067   5.922   6.488   5.723   6.386   6.374
    1.850   2.328   3.146   3.300   2.662   2.193   2.198   2.045   2.725   2.186   2.307   2.373   2.911

    0.200   9.920
    9.301   9.346   9.540   9.847   9.564   8.649   9.065   9.088   8.841   9.159   9.063   8.801   8.653
   10.500  10.187   9.045   8.986   8.795   9.751   9.652   9.045   9.304   9.685   9.522   8.997   9.160
    9.892   9.500   8.916   8.741   9.494   9.947   9.969  10.065   9.531   9.434   9.916   9.651   9.158
    9.294   8.657   9.899   9.810   9.707   9.163   9.436   9.622   9.329   9.722   9.795  10.010   9.338
    9.110   9.202   9.148   9.963   9.786   9.937   9.426   9.466   9.096   9.474   9.837   9.754   8.852
    9.288   9.316   9.521   9.679   9.492   9.802   9.267   9.203   9.467   9.034   9.494   9.107   9.434
    9.074   9.286   8.997   8.437   8.898   9.364   9.920   9.485   9.760   8.757   9.801   9.477   8.453
    9.281   9.170   8.249   8.488   8.386   8.852   9.053   8.767   9.639   8.804   9.142   8.561   9.039
    8.131   8.777   7.907   8.956   8.715   8.097   8.776   8.629   7.919   7.606   7.865   8.200   8.214
    8.185   7.928   8.048   8.051   7.671   8.241   7.463   8.683   8.424   7.159   6.845   7.963   7.569
    7.365   7.752   7.814   7.546   7.293   6.738   7.925   7.784   7.244   7.022   6.844   7.217   7.365
    6.236   6.052   6.783   6.942   6.915   6.644   6.016   6.179   5.883   6.405   5.743   6.492   6.427
    1.785   2.359   2.988   3.585   2.598   2.181   2.084   2.069   2.802   1.998   2.323   2.486   2.903

    0.250   9.871
    9.238   9.576   9.521   9.827   9.590   8.584   8.959   9.166   8.735   9.349   8.939   8.803   8.804
   10.655  10.133   9.054   9.077   8.834   9.728   9.665   8.925   9.196   9.689   9.493   8.798   9.093
    9.994   9.363   8.873   8.741   9.627   9.880   9.898  10.050   9.549   9.397   9.805   9.581   9.178
    9.140   8.520   9.999   9.880   9.744   9.283   9.490   9.569   9.448   9.656   9.840  10.061   9.325
    9.255   9.070   9.283   9.891   9.890   9.974   9.379   9.568   8.932   9.469   9.840   9.710   8.871
    9.359   9.411   9.435   9.666   9.324   9.771   9.422   9.146   9.399   9.073   9.561   9.031   9.294
    9.111   9.262   9.011   8.482   8.707   9.336   9.871   9.268   9.509   8.871  10.004   9.331   8.437
    9.294   9.255   8.266   8.540   8.433   8.710   8.882   8.928   9.497   8.740   9.110   8.668   8.886
    8.149   8.721   7.941   8.933   8.626   8.246   8.725   8.743   8.021   7.636   7.917   8.124   8.154
    8.236   7.994   7.904   7.903   7.711   8.240   7.522   8.545   8.333   7.202   6.853   7.914   7.680
    7.546   7.748   7.716   7.567   7.168   6.772   7.889   7.656   7.360   7.063   6.894   7.214   7.462
    6.293   6.234   6.782   7.048   7.223   6.623   6.008   6.189   5.764   6.192   5.668   6.559   6.342
    1.561   2.444   3.069   3.796   2.592   2.177   2.049   2.088   2.886   1.949   2.147   2.377   3.155

    0.300   9.770
    9.227   9.447   9.382   9.780   9.633   8.593   8.981   9.185   8.843   9.337   8.965   8.776   8.788
   10.518  10.191   9.144   9.214   8.641   9.810   9.643   8.757   9.305   9.714   9.452   8.662   9.033
   10.124   9.192   8.739   8.829   9.708   9.967   9.933   9.882   9.594   9.506   9.784   9.634   9.278
    9.041   8.577   9.998   9.791   9.740   9.479   9.562   9.387   9.477   9.657   9.877  10.257   9.261
    9.197   9.174   9.365   9.735   9.864   9.889   9.393   9.691   8.952   9.531   9.772   9.735   8.942
    9.420   9.588   9.466   9.541   9.274   9.674   9.539   9.138   9.411   9.208   9.555   9.029   9.315
    9.191   9.346   8.974   8.620   8.712   9.385   9.770   9.230   9.549   8.902   9.800   9.338   8.399
    9.186   9.290   8.253   8.612   8.415   8.743   8.793   8.926   9.327   8.740   8.983   8.941   8.912
    8.287   8.756   7.953   9.002   8.489   8.267   8.675   8.701   8.020   7.719   7.959   7.994   8.238
    8.306   8.052   7.747   7.995   7.680   8.248   7.385   8.575   8.361   7.142   6.882   7.845   7.742
    7.701   7.706   7.701   7.687   6.897   6.782   7.881   7.522   7.445   6.983   6.851   7.162   7.474
    6.430   6.054   6.828   6.964   7.114   6.424   6.010   6.053   5.874   6.293   5.610   6.567   6.406
    1.616   2.415   2.982   3.785   2.553   1.963   2.139   2.097   2.921   1.936   2.122   2.558   3.140

    0.350   9.783
    9.312   9.320   9.495   9.726   9.541   8.465   9.057   9.139   9.038   9.140   8.868   8.751   8.645
   10.340  10.176   9.162   9.128   8.541   9.791   9.522   8.778   9.369   9.966   9.523   8.781   8.946
   10.055   9.213   8.703   8.795   9.653   9.889   9.976   9.963   9.637   9.399   9.715   9.895   9.178
    9.110   8.665  10.149   9.844   9.742   9.632   9.630   9.644   9.486   9.806   9.792  10.272   9.359
    9.161   9.333   9.535   9.696   9.805   9.859   9.276   9.597   8.924   9.535   9.859   9.751   8.839
    9.477   9.612   9.395   9.526   9.293   9.690   9.497   9.040   9.359   9.300   9.524   9.068   9.519
    9.389   9.149   8.855   8.632   8.729   9.460   9.783   9.206   9.682   8.988   9.786   9.503   8.357
    9.176   9.323   8.437   8.466   8.408   8.742   8.693   8.835   9.495   8.530   8.838   8.916   8.782
    8.452   8.634   8.026   9.167   8.534   8.238   8.615   8.632   8.067   7.638   8.164   8.054   8.396
    8.459   8.188   7.978   8.174   7.863   8.120   7.360   8.648   8.243   7.190   6.983   7.966   7.789
    7.684   7.523   7.754   7.757   6.883   6.700   7.762   7.474   7.460   7.103   6.801   7.222   7.519
    6.393   6.146   6.850   6.893   7.078   6.522   5.874   6.106   5.981   6.187   5.552   6.487   6.411
    1.507   2.388   2.982   3.797   2.510   2.008   2.156   2.104   2.876   1.860   2.245   2.512   3.220

    0.400   9.788
    9.285   9.412   9.423   9.547   9.702   8.637   9.156   9.133   9.070   9.227   9.083   8.703   8.648
   10.277  10.253   9.297   9.171   8.624   9.918   9.760   8.956   9.546   9.812   9.612   8.769   9.065
   10.105   9.288   8.697   8.806   9.501  10.025   9.929   9.924   9.685   9.350   9.578   9.792   9.208
    9.051   8.834  10.240   9.675   9.828   9.471   9.720   9.622   9.500   9.842   9.656  10.236   9.370
    9.332   9.283   9.385   9.754   9.850   9.873   9.345   9.738   8.949   9.670   9.869   9.729   8.761
    9.566   9.551   9.399   9.634   9.342   9.778   9.726   9.117   9.356   9.319   9.639   9.144   9.391
    9.434   8.979   8.853   8.661   8.813   9.388   9.788   9.284   9.578   8.972   9.841   9.337   8.369
    9.237   9.367   8.403   8.394   8.344   8.550   8.841   8.852   9.435   8.461   8.867   8.992   8.857
    8.439   8.445   8.014   9.072   8.536   8.145   8.656   8.687   7.905   7.632   8.097   7.966   8.143
    8.505   8.130   8.043   8.149   7.809   8.006   7.310   8.645   8.272   7.125   7.085   8.084   7.646
    7.762   7.558   7.646   7.882   6.869   6.704   7.808   7.286   7.401   7.083   6.902   7.238   7.459
    6.330   6.212   6.742   6.782   7.227   6.668   6.062   6.135   6.021   6.208   5.618   6.565   6.429
    1.666   2.385   2.995   3.759   2.557   2.092   2.194   2.173   2.742   1.791   2.278   2.499   3.146

    0.450   9.527
    9.447   9.359   9.445   9.554   9.844   8.730   9.196   9.100   9.051   9.174   9.016   8.732   8.705
   10.360  10.118   9.375   9.093   8.740   9.797   9.754   8.967   9.586   9.843   9.539   8.788   9.046
    9.920   9.373   8.754   8.689   9.615  10.078   9.897  10.002   9.589   9.331   9.596   9.729   9.109
    9.267   9.038  10.161   9.741   9.822   9.432   9.524   9.722   9.700   9.809   9.786  10.248   9.443
    9.349   9.339   9.377   9.713   9.664   9.806   9.195   9.676   9.001   9.676   9.895   9.675   8.748
    9.652   9.448   9.478   9.552   9.272   9.810   9.644   9.215   9.360   9.345   9.633   8.852   9.502
    9.375   8.919   8.919   8.826   8.828   9.376   9.527   9.270   9.570   9.062   9.720   9.336   8.553
    9.207   9.387   8.214   8.422   8.520   8.486   8.795   8.925   9.362   8.616   9.020   9.162   8.867
    8.437   8.571   8.108   9.056   8.589   8.310   8.683   8.738   8.062   7.705   8.147   7.874   8.188
    8.478   8.180   7.965   8.192   7.736   8.162   7.189   8.398   8.446   7.109   7.007   8.109   7.729
    7.715   7.546   7.811   7.927   6.779   6.710   7.894   7.341   7.350   6.988   6.913   7.230   7.533
    6.377   6.252   6.637   6.868   7.283   6.783   6.020   6.012   5.873   6.273   5.525   6.668   6.642
    1.910   2.452   3.125   3.909   2.587   2.222   2.273   2.292   2.837   1.782   2.314   2.578   3.099

    0.500   9.624
    9.512   9.177   9.611   9.664   9.808   8.881   9.126   9.037   8.911   9.202   8.947   8.815   8.703
   10.210   9.983   9.495   9.070   8.576   9.893   9.900   9.118   9.485   9.827   9.527   8.811   8.878
    9.869   9.412   8.856   8.576   9.523   9.969   9.968   9.828   9.579   9.375   9.477   9.574   9.291
    9.360   8.979  10.053   9.690   9.835   9.619   9.491   9.941   9.656   9.580   9.816  10.153   9.406
    9.397   9.434   9.259   9.890   9.499   9.762   9.159   9.751   8.894   9.704   9.930   9.738   8.737
    9.445   9.324   9.728   9.598   9.387   9.779   9.571   9.214   9.348   9.151   9.692   8.896   9.490
    9.574   9.073   8.813   8.717   8.705   9.166   9.624   9.241   9.527   9.091   9.676   9.382   8.583
    9.234   9.479   8.284   8.261   8.722   8.536   8.621   8.800   9.433   8.706   9.037   9.222   8.939
    8.450   8.488   8.008   9.001   8.647   8.241   8.835   8.792   8.167   7.684   8.264   8.042   8.293
    8.393   8.244   7.952   8.178   7.763   8.261   7.287   8.497   8.354   7.018   7.103   7.960   7.748
    7.771   7.537   7.792   7.950   6.835   6.722   7.861   7.402   7.361   6.779   6.813   7.252   7.553
    6.421   5.979   6.732   7.032   7.107   6.808   5.978   5.999   5.899   6.424   5.750   6.576   6.693
    2.042   2.435   3.065   3.844   2.559   2.203   2.077   2.380   2.958   1.954   2.295   2.639   2.957

    0.550   9.785
    9.307   9.080   9.668   9.730   9.778   8.915   9.109   9.089   8.996   9.359   8.884   8.782   8.666
   10.131  10.066   9.432   9.173   8.606   9.775   9.840   9.160   9.576   9.706   9.649   8.999   8.841
    9.760   9.383   8.896   8.575   9.494   9.843   9.930   9.747   9.591   9.466   9.565   9.557   9.304
    9.313   9.063  10.085   9.590   9.811   9.574   9.612  10.017   9.554   9.567   9.954  10.186   9.451
    9.286   9.466   9.032   9.950   9.556   9.840   9.131   9.697   8.939   9.725   9.827   9.747   8.746
    9.327   9.419   9.696   9.544   9.348   9.838   9.506   9.179   9.267   9.132   9.628   8.825   9.465
    9.659   9.117   8.859   8.738   8.597   9.241   9.785   9.215   9.438   8.954   9.655   9.276   8.639
    9.299   9.323   8.354   8.443   8.707   8.544   8.611   8.681   9.480   8.527   8.971   9.268   8.834
    8.302   8.410   7.987   9.094   8.504   8.205   8.813   8.830   8.198   7.708   8.366   8.114   8.224
    8.340   8.229   8.056   8.352   7.818   8.358   7.342   8.552   8.341   7.099   7.228   7.904   7.797
    7.967   7.379   7.796   7.953   6.690   6.621   7.933   7.442   7.346   6.819   6.806   7.367   7.387
    6.563   6.058   6.756   6.877   7.056   6.680   5.957   5.965   5.759   6.353   5.901   6.541   6.705
    2.031   2.412   3.091   3.759   2.635   2.274   1.953   2.428   2.938   1.967   2.261   2.721   2.997

    0.600   9.547
    9.456   8.984   9.628   9.781   9.739   8.883   8.984   9.028   8.897   9.193   8.826   8.617   8.787
   10.164  10.048   9.367   9.183   8.593   9.680   9.932   9.199   9.344   9.831   9.592   8.972   9.074
    9.679   9.285   8.822   8.723   9.508   9.967   9.940   9.797   9.666   9.442   9.532   9.447   9.450
    9.207   8.976  10.094   9.447   9.894   9.485   9.677   9.976   9.572   9.578  10.037  10.183   9.422
    9.187   9.368   9.163  10.078   9.410   9.861   9.052   9.619   8.904   9.728   9.774   9.740   8.649
    9.352   9.420   9.735   9.602   9.499   9.916   9.492   9.154   9.017   9.158   9.694   8.950   9.460
    9.660   9.218   8.953   8.750   8.699   9.275   9.547   9.171   9.357   9.015   9.485   9.254   8.498
    9.282   9.350   8.275   8.430   8.488   8.654   8.617   8.600   9.407   8.551   8.950   9.269   8.909
    8.384   8.438   8.062   8.938   8.477   8.102   8.742   8.866   8.109   7.839   8.505   8.094   8.274
    8.427   8.230   8.046   8.083   7.777   8.299   7.437   8.714   8.342   7.030   7.310   8.066   7.692
    7.985   7.412   7.745   7.887   6.663   6.443   7.897   7.488   7.449   6.746   6.955   7.571   7.302
    6.617   6.102   6.814   6.959   7.023   6.518   6.075   6.047   5.750   6.285   6.002   6.551   6.671
    1.927   2.503   3.204   3.671   2.811   2.212   2.038   2.400   3.000   2.023   2.269   2.716   3.008

    0.650   9.557
    9.532   8.977   9.466   9.703   9.658   8.990   8.938   9.139   8.879   9.197   8.949   8.540   8.891
   10.287   9.868   9.474   9.145   8.518   9.664   9.903   9.154   9.354   9.640   9.502   8.982   9.039
    9.689   9.353   8.850   8.727   9.565  10.093   9.795   9.901   9.537   9.428   9.529   9.472   9.504
    9.159   9.084  10.133   9.635   9.819   9.514   9.555   9.821   9.522   9.697  10.131  10.045   9.484
    9.305   9.398   9.150  10.128   9.476   9.834   9.030   9.541   9.012   9.621   9.855   9.606   8.784
    9.425   9.416   9.682   9.473   9.509   9.964   9.686   9.142   8.954   9.098   9.739   8.807   9.475
    9.754   9.113   8.922   8.779   8.881   9.212   9.557   9.139   9.548   8.992   9.451   9.402   8.476
    9.225   9.332   8.508   8.327   8.264   8.669   8.591   8.729   9.227   8.625   9.081   9.295   8.919
    8.504   8.505   7.933   8.877   8.541   7.993   8.601   8.871   7.906   7.926   8.453   8.057   8.277
    8.336   8.177   8.247   7.875   7.829   8.385   7.542   8.727   8.274   7.110   7.207   8.192   7.826
    7.953   7.280   7.685   7.932   6.607   6.646   7.866   7.451   7.488   6.746   6.956   7.630   7.330
    6.362   6.245   6.932   7.025   6.884   6.530   5.952   6.099   5.944   6.161   6.063   6.632   6.560
    1.937   2.506   3.508   3.648   2.696   2.238   1.942   2.316   3.183   1.879   2.434   2.696   2.961

    0.700   9.634
    9.424   8.945   9.583   9.716   9.687   9.061   8.826   9.208   8.893   9.126   8.876   8.564   8.729
   10.304   9.945   9.314   9.099   8.619   9.880   9.886   9.424   9.284   9.721   9.430   9.019   9.051
    9.531   9.297   8.708   8.653   9.570  10.034   9.770   9.780   9.515   9.523   9.631   9.499   9.461
    9.252   9.170  10.123   9.632   9.926   9.624   9.634   9.709   9.409   9.691  10.002  10.097   9.550
    9.400   9.484   9.076   9.965   9.753   9.969   8.866   9.607   9.056   9.489   9.805   9.572   8.739
    9.514   9.427   9.687   9.506   9.440  10.007   9.632   9.191   8.762   9.175   9.559   8.672   9.592
    9.776   9.221   8.744   8.891   8.726   9.102   9.634   8.936   9.517   8.980   9.398   9.258   8.363
    9.064   9.343   8.536   8.379   8.411   8.523   8.483   8.827   9.296   8.585   9.007   9.454   8.836
    8.354   8.318   8.058   8.933   8.591   7.985   8.479   8.968   8.014   7.852   8.399   8.261   8.384
    8.315   8.186   8.384   8.031   7.914   8.494   7.678   8.525   8.224   7.110   7.101   8.216   7.893
    7.940   7.242   7.748   8.147   6.580   6.594   7.916   7.578   7.540   6.761   6.942   7.587   7.374
    6.381   6.217   6.830   7.031   6.969   6.334   5.918   6.103   5.979   6.136   5.947   6.644   6.448
    1.842   2.558   3.528   3.692   2.722   2.146   1.780   2.382   3.073   1.948   2.454   2.667   3.025

    0.750   9.588
    9.325   9.099   9.726   9.370   9.719   9.101   8.706   9.255   8.851   9.091   9.001   8.614   8.754
   10.190  10.050   9.307   9.053   8.558   9.933   9.864   9.274   9.178   9.756   9.241   9.064   8.985
    9.556   9.283   8.790   8.616   9.508  10.010   9.827   9.719   9.492   9.746   9.576   9.558   9.521
    9.217   9.370  10.041   9.749   9.913   9.646   9.523   9.666   9.382   9.684   9.919  10.205   9.361
    9.329   9.483   9.078   9.993   9.662   9.933   9.078   9.589   8.955   9.455   9.852   9.600   8.704
    9.520   9.280   9.696   9.492   9.437   9.799   9.448   9.190   8.850   9.300   9.543   8.953   9.545
    9.799   9.347   8.695   8.875   8.759   9.067   9.588   8.877   9.614   9.229   9.367   9.243   8.298
    9.122   9.261   8.539   8.356   8.458   8.562   8.510   8.979   9.323   8.569   8.975   9.529   8.912
    8.234   8.239   8.079   8.954   8.611   7.902   8.440   8.975   8.081   7.771   8.259   8.292   8.311
    8.318   8.268   8.301   7.920   7.982   8.561   7.818   8.557   8.463   6.929   7.149   8.067   7.990
    8.051   7.259   7.640   8.055   6.735   6.761   7.851   7.531   7.523   6.799   6.909   7.557   7.483
    6.288   6.389   6.792   6.884   6.925   6.231   5.884   6.077   5.849   6.144   5.944   6.644   6.376
    1.740   2.455   3.430   3.664   2.770   2.116   1.801   2.220   3.076   1.872   2.420   2.652   2.973

    0.800   9.547
    9.420   9.143   9.509   9.321   9.863   9.110   8.799   9.330   8.886   9.102   9.003   8.678   8.772
   10.030  10.032   9.307   9.016   8.431   9.884   9.995   9.179   9.285   9.642   9.356   8.953   8.986
    9.512   9.154   8.642   8.531   9.497   9.815   9.902   9.730   9.439   9.833   9.344   9.501   9.410
    9.146   9.310  10.130   9.760   9.810   9.554   9.480   9.727   9.326   9.691   9.983  10.210   9.239
    9.269   9.366   9.182   9.894   9.462  10.031   9.117   9.516   8.910   9.396   9.825   9.555   8.593
    9.466   9.233   9.556   9.570   9.334   9.797   9.424   9.108   8.872   9.340   9.726   8.896   9.651
    9.794   9.266   8.583   9.004   8.726   9.045   9.547   8.835   9.514   9.092   9.377   9.251   8.312
    9.215   9.104   8.348   8.388   8.388   8.655   8.516   9.022   9.320   8.601   8.836   9.475   8.982
    8.282   8.434   8.159   8.939   8.546   7.809   8.301   9.056   8.099   7.675   8.345   8.260   8.255
    8.193   8.318   8.338   7.968   8.016   8.526   7.769   8.502   8.421   6.971   6.989   7.974   7.960
    7.823   7.228   7.646   8.131   6.952   6.812   7.814   7.424   7.432   6.791   7.081   7.535   7.424
    6.360   6.299   6.888   6.944   7.003   6.185   5.880   5.987   5.864   6.041   6.008   6.579   6.347
    1.671   2.562   3.324   3.594   2.860   2.163   1.801   2.138   3.101   1.883   2.431   2.598   2.900

    0.850   9.464
    9.371   9.194   9.585   9.341   9.680   9.033   8.906   9.339   8.821   9.240   8.921   8.802   8.654
   10.133  10.193   9.255   9.089   8.393  10.040   9.909   9.131   9.315   9.599   9.400   8.887   8.962
    9.542   9.296   8.676   8.629   9.491   9.659   9.844   9.794   9.473   9.592   9.402   9.560   9.334
    9.253   9.257  10.058   9.815   9.875   9.675   9.462   9.705   9.371   9.711   9.735  10.178   9.219
    9.065   9.214   8.991   9.923   9.322  10.073   9.069   9.535   9.041   9.406   9.834   9.478   8.735
    9.279   9.318   9.452   9.565   9.372   9.813   9.424   8.905   8.898   9.251   9.807   8.891   9.722
    9.677   9.225   8.551   8.917   8.636   9.252   9.464   9.004   9.572   9.035   9.372   9.144   8.394
    9.168   9.074   8.231   8.350   8.428   8.710   8.621   9.149   9.278   8.729   8.936   9.538   8.905
    8.394   8.281   8.279   8.933   8.549   7.892   8.075   9.059   8.075   7.710   8.262   8.479   8.148
    8.099   8.233   8.451   8.205   8.135   8.544   7.569   8.410   8.418   7.151   7.052   7.885   7.807
    7.717   7.244   7.747   8.115   7.003   6.755   7.971   7.528   7.482   6.614   7.117   7.610   7.502
    6.458   6.044   6.904   7.040   6.989   6.317   5.728   6.025   5.846   6.015   6.159   6.656   6.333
    1.682   2.686   3.255   3.650   2.824   2.394   1.981   2.076   3.156   1.900   2.339   2.434   2.877

    0.900   9.370
    9.482   9.426   9.487   9.387   9.648   8.967   9.001   9.497   8.945   9.114   8.890   8.706   8.945
   10.154  10.161   9.344   9.186   8.608  10.095   9.744   9.204   9.345   9.622   9.386   8.888   8.940
    9.707   9.480   8.758   8.519   9.444   9.676   9.675   9.873   9.496   9.447   9.225   9.487   9.480
    9.356   9.240  10.169   9.830   9.911   9.555   9.440   9.691   9.234   9.711   9.719  10.102   9.116
    9.165   9.337   9.089  10.163   9.290   9.980   9.059   9.544   9.144   9.392   9.922   9.522   8.664
    9.350   9.363   9.604   9.467   9.256   9.863   9.391   8.834   8.907   9.159   9.906   8.747   9.652
    9.739   9.142   8.439   8.774   8.800   9.357   9.370   9.185   9.394   8.980   9.470   9.144   8.401
    9.053   9.049   8.177   8.388   8.505   8.813   8.642   9.234   9.162   8.650   8.930   9.592   8.786
    8.352   8.314   7.984   8.916   8.297   7.956   8.142   9.117   7.991   7.766   8.215   8.453   8.219
    7.953   8.252   8.454   8.255   8.121   8.454   7.472   8.419   8.407   7.133   7.164   8.026   7.803
    7.694   7.328   7.717   7.960   7.053   6.794   7.915   7.554   7.475   6.622   7.003   7.690   7.620
    6.322   5.906   6.792   7.011   7.089   6.167   5.758   5.918   5.816   6.169   6.275   6.698   6.258
    1.690   2.604   3.368   3.634   2.754   2.422   2.093   2.264   2.970   2.016   2.292   2.560   2.769

    0.950   9.379
    9.501   9.461   9.417   9.345   9.625   9.039   8.894   9.528   9.035   9.093   8.914   8.546   9.180
   10.071  10.053   9.400   9.226   8.752  10.059   9.716   9.250   9.418   9.656   9.451   8.943   8.943
    9.882   9.407   8.703   8.518   9.568   9.635   9.787   9.833   9.446   9.413   9.338   9.416   9.705
    9.368   9.151  10.133   9.715   9.974   9.695   9.438   9.753   9.195   9.723   9.821  10.093   8.995
    9.131   9.437   9.238  10.304   9.292   9.999   8.901   9.527   9.270   9.269   9.954   9.705   8.818
    9.341   9.319   9.751   9.358   9.187   9.914   9.461   8.806   8.754   9.258   9.853   8.783   9.821
    9.587   9.138   8.470   8.795   8.706   9.392   9.379   9.142   9.489   8.933   9.580   9.196   8.475
    9.198   8.884   8.303   8.319   8.691   8.817   8.498   9.097   9.250   8.593   8.924   9.670   8.753
    8.337   8.282   8.003   8.878   8.175   8.030   8.117   9.022   8.104   7.917   8.197   8.290   8.254
    7.821   8.331   8.373   8.373   8.026   8.443   7.354   8.426   8.230   7.132   7.173   7.806   7.822
    7.616   7.437   7.780   8.052   6.951   6.815   8.007   7.460   7.451   6.596   7.084   7.524   7.611
    6.333   5.885   6.857   6.915   7.158   6.071   5.981   5.931   5.728   6.208   6.138   6.514   6.283
    1.775   2.445   3.353   3.470   2.782   2.425   2.094   2.248   2.920   2.072   2.225   2.605   2.751

    1.000   9.398
    9.512   9.427   9.364   9.222   9.529   8.906   8.880   9.637   8.914   9.049   8.931   8.586   9.160
   10.034  10.019   9.306   9.182   8.698  10.062   9.908   9.110   9.397   9.562   9.515   8.997   8.939
    9.979   9.597   8.775   8.526   9.522   9.513   9.722   9.917   9.357   9.510   9.507   9.411   9.806
    9.321   9.209  10.197   9.759   9.902   9.712   9.615   9.871   9.215   9.700  10.009  10.106   9.072
    8.954   9.374   9.272  10.175   9.380  10.008   9.087   9.562   9.094   9.181   9.925   9.757   8.889
    9.369   9.295   9.671   9.462   9.141   9.727   9.423   8.913   8.676   9.130   9.683   8.806   9.606
    9.515   9.003   8.489   8.897   8.866   9.254   9.398   9.141   9.402   8.872   9.471   9.006   8.642
    8.960   8.967   8.259   8.183   8.657   8.816   8.463   9.035   9.311   8.527   8.881   9.694   8.905
    8.466   8.317   7.915   8.872   8.014   8.054   8.166   9.015   8.024   7.804   8.382   8.306   8.065
    7.753   8.435   8.358   8.123   8.076   8.303   7.360   8.403   8.213   7.032   7.091   7.665   7.807
    7.544   7.327   7.802   7.989   6.817   6.686   7.857   7.367   7.373   6.580   6.943   7.531   7.661
    6.403   5.966   6.872   6.952   6.998   6.127   6.035   6.084   5.757   6.203   6.122   6.467   6.262
    1.807   2.400   3.386   3.582   2.801   2.470   2.078   2.171   2.840   2.026   2.255   2.657   2.745

    1.050   9.455
    9.562   9.403   9.540   9.134   9.397   8.847   8.876   9.622   8.927   9.035   9.015   8.517   9.173